@<TRIPOS>MOLECULE
3R135
127   129    1
SMALL
USER_CHARGES


@<TRIPOS>ATOM
      1 CA        -80.7311   24.6192  -72.8505 C.3       0 UNK        -0.1998 
      2 C         -82.1786   25.0026  -72.5504 C.2       0 UNK         0.4909 
      3 O         -82.8349   24.2988  -71.7858 O.2       0 UNK        -0.5240 
      4 N         -82.7350   26.0911  -73.1081 N.am      1 UNK        -0.4739 
      5 CA        -82.1493   27.0551  -74.0579 C.3       1 UNK         0.0864 
      6 C6        -80.8624   27.7407  -73.5178 C.3       11 UNK        -0.0881 
      7 S7        -80.7886   29.5300  -73.8783 S.3       11 UNK        -0.2682 
      8 C8        -80.5322   30.2460  -72.2208 C.3       11 UNK         0.0289 
      9 C9        -79.1137   30.0206  -71.7112 C.ar      11 UNK        -0.0687 
     10 C10       -78.7997   28.8695  -70.9836 C.ar      11 UNK        -0.0823 
     11 C11       -77.4991   28.6452  -70.5289 C.ar      11 UNK        -0.0830 
     12 C12       -76.5157   29.6111  -70.7517 C.ar      11 UNK        -0.1021 
     13 C13       -76.8169   30.7763  -71.4642 C.ar      11 UNK        -0.0753 
     14 C14       -78.1144   30.9692  -71.9526 C.ar      11 UNK        -0.0933 
     15 C15       -75.7477   31.8353  -71.6923 C.3       11 UNK         0.0166 
     16 S16       -74.6341   31.3921  -73.0614 S.3       11 UNK        -0.2615 
     17 C17       -73.5044   30.2088  -72.2460 C.3       11 UNK        -0.0865 
     18 CA        -72.1210   30.1292  -72.9419 C.3       10 UNK         0.0862 
     19 C         -71.1181   29.2403  -72.1477 C.2       10 UNK         0.5551 
     20 N         -70.3817   28.3289  -72.7743 N.am      10 UNK        -0.7319 
     21 O         -70.9929   29.3896  -70.9347 O.2       10 UNK        -0.5018 
     22 N         -72.2587   29.7300  -74.3488 N.am      10 UNK        -0.4509 
     23 C         -71.5423   30.2264  -75.3624 C.2       10 UNK         0.4899 
     24 O         -70.7070   31.1243  -75.2394 O.2       10 UNK        -0.4839 
     25 CA        -71.8033   29.5987  -76.7444 C.3       9 UNK         0.0222 
     26 CB        -70.7351   29.9801  -77.7913 C.3       9 UNK        -0.1966 
     27 N         -71.9764   28.1421  -76.6920 N.am      9 UNK        -0.4218 
     28 C         -71.1013   27.2286  -76.2388 C.2       9 UNK         0.5020 
     29 O         -70.0115   27.5218  -75.7447 O.2       9 UNK        -0.5274 
     30 CA        -71.4978   25.7374  -76.3139 C.3       8 UNK         0.0270 
     31 CB        -71.3865   25.0755  -74.9296 C.3       8 UNK        -0.1976 
     32 N         -72.8444   25.5051  -76.8428 N.am      8 UNK        -0.4313 
     33 C         -73.2093   25.6306  -78.1255 C.2       8 UNK         0.5041 
     34 O         -72.4219   25.8567  -79.0441 O.2       8 UNK        -0.5577 
     35 CA        -74.7168   25.5631  -78.4184 C.3       7 UNK         0.0284 
     36 CB        -75.1513   24.1205  -78.7212 C.3       7 UNK        -0.1958 
     37 N         -75.5199   26.1306  -77.3257 N.am      7 UNK        -0.4454 
     38 C         -75.5728   27.4408  -77.0373 C.2       7 UNK         0.5089 
     39 O         -75.0000   28.3043  -77.7012 O.2       7 UNK        -0.5125 
     40 CA        -76.3426   27.8582  -75.7724 C.3       6 UNK         0.0408 
     41 CB        -77.8264   28.0944  -76.0848 C.3       6 UNK        -0.1791 
     42 N         -76.1986   26.8876  -74.6832 N.am      6 UNK        -0.4762 
     43 C         -75.0713   26.7528  -73.9668 C.2       6 UNK         0.5007 
     44 O         -74.0769   27.4595  -74.1394 O.2       6 UNK        -0.5032 
     45 CA        -74.9907   25.6010  -72.9404 C.3       5 UNK         0.0783 
     46 C46       -75.2816   26.0635  -71.4859 C.3       11 UNK        -0.0857 
     47 S47       -77.0386   25.9684  -70.9856 S.3       11 UNK        -0.2512 
     48 C48       -77.1721   27.3496  -69.8067 C.3       11 UNK         0.0225 
     49 N         -75.7674   24.4177  -73.3208 N.am      5 UNK        -0.4615 
     50 C         -75.5943   23.6938  -74.4317 C.2       4 UNK         0.5053 
     51 O         -74.7191   23.9327  -75.2646 O.2       4 UNK        -0.5105 
     52 CA        -76.5823   22.5393  -74.6897 C.3       4 UNK         0.0263 
     53 CB        -77.5351   22.2444  -73.5078 C.3       4 UNK        -0.1981 
     54 N         -77.3503   22.7568  -75.9220 N.am      4 UNK        -0.4224 
     55 C         -78.1222   23.8151  -76.2149 C.2       3 UNK         0.4895 
     56 O         -78.2813   24.7737  -75.4564 O.2       3 UNK        -0.5091 
     57 CA        -78.7819   23.8490  -77.6093 C.3       3 UNK         0.0250 
     58 CB        -78.7083   22.5145  -78.3892 C.3       3 UNK        -0.1996 
     59 N         -80.1582   24.3516  -77.5573 N.am      3 UNK        -0.4254 
     60 C         -81.2008   23.7892  -76.9315 C.2       2 UNK         0.5004 
     61 O         -81.1511   22.7271  -76.3075 O.2       2 UNK        -0.5226 
     62 CA        -82.5233   24.5728  -76.9862 C.3       2 UNK         0.0269 
     63 CB        -83.7379   23.6392  -77.1371 C.3       2 UNK        -0.1926 
     64 N         -82.6775   25.3641  -75.7678 N.am      2 UNK        -0.4687 
     65 C         -81.9885   26.4792  -75.4852 C.2       1 UNK         0.5165 
     66 O         -81.2520   27.0358  -76.3004 O.2       1 UNK        -0.5079 
     67 H67       -80.4826   24.7267  -73.9041 H         1 UNK         0.0900 
     68 H68       -80.0424   25.2265  -72.2641 H         1 UNK         0.0900 
     69 H69       -80.5585   23.5760  -72.5876 H         1 UNK         0.0900 
     70 H70       -83.6958   26.2920  -72.8646 H         1 UNK         0.2959 
     71 H71       -82.9175   27.8237  -74.1602 H         1 UNK         0.1079 
     72 H72       -80.8331   27.6211  -72.4380 H         1 UNK         0.0837 
     73 H73       -79.9546   27.2599  -73.8876 H         1 UNK         0.0837 
     74 H74       -80.7388   31.3162  -72.2693 H         1 UNK         0.0685 
     75 H75       -81.2604   29.8312  -71.5220 H         1 UNK         0.0685 
     76 H76       -79.5600   28.1316  -70.7752 H         1 UNK         0.1434 
     77 H77       -75.5154   29.4529  -70.3750 H         1 UNK         0.1329 
     78 H78       -78.3508   31.8639  -72.5123 H         1 UNK         0.1335 
     79 H79       -75.1759   31.9978  -70.7776 H         1 UNK         0.0680 
     80 H80       -76.2153   32.7929  -71.9264 H         1 UNK         0.0680 
     81 H81       -73.9790   29.2280  -72.2262 H         1 UNK         0.1032 
     82 H82       -73.3805   30.5106  -71.2046 H         1 UNK         0.1032 
     83 H83       -71.6957   31.1338  -72.9054 H         1 UNK         0.0461 
     84 H84       -69.7344   27.7715  -72.2407 H         1 UNK         0.3453 
     85 H85       -70.4319   28.2171  -73.7792 H         1 UNK         0.3453 
     86 H86       -72.9045   28.9632  -74.5163 H         1 UNK         0.2984 
     87 H87       -72.7571   30.0044  -77.0846 H         1 UNK         0.0554 
     88 H88       -70.9594   29.5425  -78.7640 H         1 UNK         0.0847 
     89 H89       -69.7403   29.6459  -77.4943 H         1 UNK         0.0847 
     90 H90       -70.6878   31.0612  -77.9270 H         1 UNK         0.0847 
     91 H91       -72.8633   27.8073  -77.0460 H         1 UNK         0.3141 
     92 H92       -70.7849   25.2493  -76.9814 H         1 UNK         0.0743 
     93 H93       -71.7081   24.0340  -74.9546 H         1 UNK         0.0784 
     94 H94       -70.3555   25.0871  -74.5735 H         1 UNK         0.0784 
     95 H95       -71.9882   25.5988  -74.1875 H         1 UNK         0.0784 
     96 H96       -73.5545   25.2211  -76.1732 H         1 UNK         0.3213 
     97 H97       -74.8965   26.1598  -79.3158 H         1 UNK         0.0855 
     98 H98       -74.5021   23.6696  -79.4733 H         1 UNK         0.0814 
     99 H99       -76.1619   24.0908  -79.1236 H         1 UNK         0.0814 
    100 H100      -75.1116   23.4832  -77.8383 H         1 UNK         0.0814 
    101 H101      -75.9552   25.4833  -76.6837 H         1 UNK         0.3105 
    102 H102      -75.9268   28.8105  -75.4346 H         1 UNK         0.0547 
    103 H103      -78.3514   28.4734  -75.2096 H         1 UNK         0.0837 
    104 H104      -78.3314   27.1870  -76.4148 H         1 UNK         0.0837 
    105 H105      -77.9453   28.8364  -76.8751 H         1 UNK         0.0837 
    106 H106      -76.9649   26.2393  -74.5355 H         1 UNK         0.3020 
    107 H107      -73.9460   25.2851  -72.9583 H         1 UNK         0.1245 
    108 H108      -74.8983   27.0705  -71.3113 H         1 UNK         0.0781 
    109 H109      -74.7280   25.4246  -70.7962 H         1 UNK         0.0781 
    110 H110      -76.2530   27.4395  -69.2253 H         1 UNK         0.0836 
    111 H111      -77.9636   27.1256  -69.0899 H         1 UNK         0.0836 
    112 H112      -76.5332   24.1870  -72.7040 H         1 UNK         0.3022 
    113 H113      -75.9719   21.6502  -74.8541 H         1 UNK         0.0747 
    114 H114      -78.1718   21.3871  -73.7267 H         1 UNK         0.0793 
    115 H115      -76.9792   22.0033  -72.6007 H         1 UNK         0.0793 
    116 H116      -78.1903   23.0867  -73.2852 H         1 UNK         0.0793 
    117 H117      -77.2595   22.0344  -76.6222 H         1 UNK         0.3047 
    118 H118      -78.2264   24.5950  -78.1778 H         1 UNK         0.0822 
    119 H119      -79.1947   21.6984  -77.8534 H         1 UNK         0.0807 
    120 H120      -77.6778   22.2159  -78.5833 H         1 UNK         0.0807 
    121 H121      -79.1953   22.6038  -79.3604 H         1 UNK         0.0807 
    122 H122      -80.2945   25.2735  -77.9502 H         1 UNK         0.2946 
    123 H123      -82.5046   25.2425  -77.8495 H         1 UNK         0.1144 
    124 H124      -83.6434   23.0204  -78.0304 H         1 UNK         0.0793 
    125 H125      -83.8444   22.9666  -76.2849 H         1 UNK         0.0793 
    126 H126      -84.6638   24.2065  -77.2330 H         1 UNK         0.0793 
    127 H127      -83.2485   24.9629  -75.0376 H         1 UNK         0.2896 
@<TRIPOS>BOND
     1    1    2 1    
     2    1   67 1    
     3    1   68 1    
     4    1   69 1    
     5    2    3 2    
     6    2    4 am   BACKBONE|DICT|INTERRES
     7    4    5 1    
     8    4   70 1    
     9    5    6 1    
    10    5   65 1    
    11    5   71 1    
    12    6    7 1    
    13    6   72 1    
    14    6   73 1    
    15    7    8 1    
    16    8    9 1    
    17    8   74 1    
    18    8   75 1    
    19    9   10 ar   
    20    9   14 ar   
    21   10   11 ar   
    22   10   76 1    
    23   11   12 ar   
    24   11   48 1    
    25   12   13 ar   
    26   12   77 1    
    27   13   14 ar   
    28   13   15 1    
    29   14   78 1    
    30   15   16 1    
    31   15   79 1    
    32   15   80 1    
    33   16   17 1    
    34   17   18 1    
    35   17   81 1    
    36   17   82 1    
    37   18   19 1    
    38   18   22 1    
    39   18   83 1    
    40   19   20 am   BACKBONE|DICT|INTERRES
    41   19   21 2    
    42   20   84 1    
    43   20   85 1    
    44   22   23 am   BACKBONE|DICT|INTERRES
    45   22   86 1    
    46   23   24 2    
    47   23   25 1    
    48   25   26 1    
    49   25   27 1    
    50   25   87 1    
    51   26   88 1    
    52   26   89 1    
    53   26   90 1    
    54   27   28 am   BACKBONE|DICT|INTERRES
    55   27   91 1    
    56   28   29 2    
    57   28   30 1    
    58   30   31 1    
    59   30   32 1    
    60   30   92 1    
    61   31   93 1    
    62   31   94 1    
    63   31   95 1    
    64   32   33 am   BACKBONE|DICT|INTERRES
    65   32   96 1    
    66   33   34 2    
    67   33   35 1    
    68   35   36 1    
    69   35   37 1    
    70   35   97 1    
    71   36   98 1    
    72   36   99 1    
    73   36  100 1    
    74   37   38 am   BACKBONE|DICT|INTERRES
    75   37  101 1    
    76   38   39 2    
    77   38   40 1    
    78   40   41 1    
    79   40   42 1    
    80   40  102 1    
    81   41  103 1    
    82   41  104 1    
    83   41  105 1    
    84   42   43 am   BACKBONE|DICT|INTERRES
    85   42  106 1    
    86   43   44 2    
    87   43   45 1    
    88   45   46 1    
    89   45   49 1    
    90   45  107 1    
    91   46   47 1    
    92   46  108 1    
    93   46  109 1    
    94   47   48 1    
    95   48  110 1    
    96   48  111 1    
    97   49   50 am   BACKBONE|DICT|INTERRES
    98   49  112 1    
    99   50   51 2    
   100   50   52 1    
   101   52   53 1    
   102   52   54 1    
   103   52  113 1    
   104   53  114 1    
   105   53  115 1    
   106   53  116 1    
   107   54   55 am   BACKBONE|DICT|INTERRES
   108   54  117 1    
   109   55   56 2    
   110   55   57 1    
   111   57   58 1    
   112   57   59 1    
   113   57  118 1    
   114   58  119 1    
   115   58  120 1    
   116   58  121 1    
   117   59   60 am   BACKBONE|DICT|INTERRES
   118   59  122 1    
   119   60   61 2    
   120   60   62 1    
   121   62   63 1    
   122   62   64 1    
   123   62  123 1    
   124   63  124 1    
   125   63  125 1    
   126   63  126 1    
   127   64   65 am   BACKBONE|DICT|INTERRES
   128   64  127 1    
   129   65   66 2    
@<TRIPOS>SUBSTRUCTURE
     1 UNK         1 GROUP             0       ****    0 ROOT    
