@<TRIPOS>MOLECULE
3R135
127   129    1
SMALL
USER_CHARGES


@<TRIPOS>ATOM
      1 CA        -84.5852   26.1997  -73.5381 C.3       0 UNK        -0.1998 
      2 C         -83.5075   26.8709  -74.3760 C.2       0 UNK         0.4909 
      3 O         -83.2818   26.4703  -75.5190 O.2       0 UNK        -0.5240 
      4 N         -82.8483   27.8959  -73.8201 N.am      1 UNK        -0.4739 
      5 CA        -81.7262   28.6067  -74.4407 C.3       1 UNK         0.0864 
      6 C6        -81.4664   30.0008  -73.7954 C.3       11 UNK        -0.0881 
      7 S7        -81.4875   30.1874  -71.9693 S.3       11 UNK        -0.2682 
      8 C8        -80.7342   28.6819  -71.2559 C.3       11 UNK         0.0289 
      9 C9        -79.2364   28.4736  -71.4920 C.ar      11 UNK        -0.0687 
     10 C10       -78.7028   27.2243  -71.1658 C.ar      11 UNK        -0.0823 
     11 C11       -77.3541   26.9288  -71.3736 C.ar      11 UNK        -0.0830 
     12 C12       -76.5257   27.9161  -71.9198 C.ar      11 UNK        -0.1021 
     13 C13       -77.0342   29.1765  -72.2476 C.ar      11 UNK        -0.0753 
     14 C14       -78.3867   29.4547  -72.0206 C.ar      11 UNK        -0.0933 
     15 C15       -76.1367   30.2209  -72.8973 C.3       11 UNK         0.0166 
     16 S16       -75.2473   31.2337  -71.6734 S.3       11 UNK        -0.2615 
     17 C17       -73.7871   30.2012  -71.2951 C.3       11 UNK        -0.0865 
     18 CA        -72.4943   30.7113  -71.9816 C.3       10 UNK         0.0862 
     19 C         -71.2599   29.9103  -71.4838 C.2       10 UNK         0.5551 
     20 N         -70.6234   30.3587  -70.4107 N.am      10 UNK        -0.7319 
     21 O         -70.9040   28.8689  -72.0325 O.2       10 UNK        -0.5018 
     22 N         -72.6146   30.6895  -73.4463 N.am      10 UNK        -0.4509 
     23 C         -71.7787   31.2937  -74.2959 C.2       10 UNK         0.4899 
     24 O         -70.8276   31.9936  -73.9429 O.2       10 UNK        -0.4839 
     25 CA        -72.0578   31.0651  -75.7933 C.3       9 UNK         0.0222 
     26 CB        -71.2365   32.0039  -76.6973 C.3       9 UNK        -0.1966 
     27 N         -71.7971   29.6785  -76.1876 N.am      9 UNK        -0.4218 
     28 C         -72.6140   28.6430  -75.9593 C.2       9 UNK         0.5020 
     29 O         -73.6821   28.7324  -75.3477 O.2       9 UNK        -0.5274 
     30 CA        -72.1480   27.2735  -76.4809 C.3       8 UNK         0.0270 
     31 CB        -71.5461   26.4403  -75.3393 C.3       8 UNK        -0.1976 
     32 N         -73.2624   26.5446  -77.0911 N.am      8 UNK        -0.4313 
     33 C         -73.8161   26.8747  -78.2673 C.2       8 UNK         0.5041 
     34 O         -73.3567   27.7485  -79.0059 O.2       8 UNK        -0.5577 
     35 CA        -75.1086   26.1439  -78.6809 C.3       7 UNK         0.0284 
     36 CB        -75.2915   26.0523  -80.2115 C.3       7 UNK        -0.1958 
     37 N         -75.2923   24.8396  -78.0351 N.am      7 UNK        -0.4454 
     38 C         -74.5964   23.7122  -78.2406 C.2       7 UNK         0.5089 
     39 O         -73.6618   23.6150  -79.0373 O.2       7 UNK        -0.5125 
     40 CA        -75.0343   22.4851  -77.4119 C.3       6 UNK         0.0408 
     41 CB        -73.9653   21.3723  -77.3773 C.3       6 UNK        -0.1791 
     42 N         -75.4801   22.8221  -76.0528 N.am      6 UNK        -0.4762 
     43 C         -74.7574   23.4204  -75.0895 C.2       6 UNK         0.5007 
     44 O         -73.5859   23.7628  -75.2520 O.2       6 UNK        -0.5032 
     45 CA        -75.4506   23.7004  -73.7342 C.3       5 UNK         0.0783 
     46 C46       -75.0318   25.0745  -73.1412 C.3       11 UNK        -0.0857 
     47 S47       -75.1209   25.1252  -71.3203 S.3       11 UNK        -0.2512 
     48 C48       -76.8693   25.5305  -70.9844 C.3       11 UNK         0.0225 
     49 N         -76.9052   23.6377  -73.8943 N.am      5 UNK        -0.4615 
     50 C         -77.7249   22.6915  -73.4231 C.2       4 UNK         0.5053 
     51 O         -77.3483   21.7391  -72.7410 O.2       4 UNK        -0.5105 
     52 CA        -79.2223   22.8250  -73.7739 C.3       4 UNK         0.0263 
     53 CB        -80.0121   23.3764  -72.5755 C.3       4 UNK        -0.1981 
     54 N         -79.4822   23.6757  -74.9407 N.am      4 UNK        -0.4224 
     55 C         -79.1353   23.3715  -76.2013 C.2       3 UNK         0.4895 
     56 O         -78.6141   22.3048  -76.5267 O.2       3 UNK        -0.5091 
     57 CA        -79.3279   24.4677  -77.2673 C.3       3 UNK         0.0250 
     58 CB        -80.7084   24.3377  -77.9291 C.3       3 UNK        -0.1996 
     59 N         -79.1667   25.8294  -76.7455 N.am      3 UNK        -0.4254 
     60 C         -78.0755   26.2920  -76.1186 C.2       2 UNK         0.5004 
     61 O         -77.0461   25.6328  -75.9862 O.2       2 UNK        -0.5226 
     62 CA        -78.1349   27.6942  -75.4960 C.3       2 UNK         0.0269 
     63 CB        -77.2586   28.6761  -76.2888 C.3       2 UNK        -0.1926 
     64 N         -79.4823   28.2535  -75.3458 N.am      2 UNK        -0.4687 
     65 C         -80.4486   27.7465  -74.5647 C.2       1 UNK         0.5165 
     66 O         -80.3507   26.6653  -73.9762 O.2       1 UNK        -0.5079 
     67 H67       -85.5473   26.2588  -74.0462 H         1 UNK         0.0900 
     68 H68       -84.3415   25.1481  -73.3891 H         1 UNK         0.0900 
     69 H69       -84.6893   26.6657  -72.5584 H         1 UNK         0.0900 
     70 H70       -83.0724   28.1845  -72.8788 H         1 UNK         0.2959 
     71 H71       -82.0285   28.7992  -75.4731 H         1 UNK         0.1079 
     72 H72       -82.2385   30.6798  -74.1608 H         1 UNK         0.0837 
     73 H73       -80.5355   30.4377  -74.1606 H         1 UNK         0.0837 
     74 H74       -81.2836   27.8065  -71.6016 H         1 UNK         0.0685 
     75 H75       -80.8926   28.7221  -70.1775 H         1 UNK         0.0685 
     76 H76       -79.3536   26.4644  -70.7543 H         1 UNK         0.1434 
     77 H77       -75.4853   27.7061  -72.1091 H         1 UNK         0.1329 
     78 H78       -78.7710   30.4311  -72.2771 H         1 UNK         0.1335 
     79 H79       -76.7383   30.8844  -73.5203 H         1 UNK         0.0680 
     80 H80       -75.4287   29.7409  -73.5732 H         1 UNK         0.0680 
     81 H81       -73.6649   30.2068  -70.2101 H         1 UNK         0.1032 
     82 H82       -73.9698   29.1625  -71.5645 H         1 UNK         0.1032 
     83 H83       -72.3516   31.7539  -71.6892 H         1 UNK         0.0461 
     84 H84       -69.8293   29.8447  -70.0619 H         1 UNK         0.3453 
     85 H85       -70.9123   31.2071  -69.9486 H         1 UNK         0.3453 
     86 H86       -73.3075   30.0626  -73.8398 H         1 UNK         0.2984 
     87 H87       -73.1138   31.2854  -75.9656 H         1 UNK         0.0554 
     88 H88       -71.4214   33.0488  -76.4444 H         1 UNK         0.0847 
     89 H89       -71.5011   31.8761  -77.7472 H         1 UNK         0.0847 
     90 H90       -70.1643   31.8298  -76.5977 H         1 UNK         0.0847 
     91 H91       -70.9217   29.5065  -76.6613 H         1 UNK         0.3141 
     92 H92       -71.3784   27.4198  -77.2419 H         1 UNK         0.0743 
     93 H93       -72.2591   26.2955  -74.5283 H         1 UNK         0.0784 
     94 H94       -71.2290   25.4568  -75.6869 H         1 UNK         0.0784 
     95 H95       -70.6714   26.9347  -74.9145 H         1 UNK         0.0784 
     96 H96       -73.6911   25.8165  -76.5354 H         1 UNK         0.3213 
     97 H97       -75.9200   26.7683  -78.3065 H         1 UNK         0.0855 
     98 H98       -74.4678   25.5210  -80.6886 H         1 UNK         0.0814 
     99 H99       -75.3354   27.0457  -80.6594 H         1 UNK         0.0814 
    100 H100      -76.2185   25.5413  -80.4712 H         1 UNK         0.0814 
    101 H101      -75.9923   24.8362  -77.2953 H         1 UNK         0.3105 
    102 H102      -75.9104   22.0802  -77.9206 H         1 UNK         0.0547 
    103 H103      -74.3070   20.5107  -76.8040 H         1 UNK         0.0837 
    104 H104      -73.0311   21.7209  -76.9361 H         1 UNK         0.0837 
    105 H105      -73.7358   21.0189  -78.3833 H         1 UNK         0.0837 
    106 H106      -76.4455   22.5943  -75.8471 H         1 UNK         0.3020 
    107 H107      -75.1090   22.9076  -73.0649 H         1 UNK         0.1245 
    108 H108      -75.6156   25.8832  -73.5826 H         1 UNK         0.0781 
    109 H109      -73.9929   25.3124  -73.3676 H         1 UNK         0.0781 
    110 H110      -77.0283   25.4083  -69.9121 H         1 UNK         0.0836 
    111 H111      -77.5009   24.7857  -71.4639 H         1 UNK         0.0836 
    112 H112      -77.2879   24.3642  -74.4901 H         1 UNK         0.3022 
    113 H113      -79.5925   21.8221  -73.9967 H         1 UNK         0.0747 
    114 H114      -81.0852   23.3552  -72.7668 H         1 UNK         0.0793 
    115 H115      -79.8318   22.7837  -71.6775 H         1 UNK         0.0793 
    116 H116      -79.7366   24.4073  -72.3508 H         1 UNK         0.0793 
    117 H117      -79.8836   24.5885  -74.7544 H         1 UNK         0.3047 
    118 H118      -78.5631   24.3167  -78.0321 H         1 UNK         0.0822 
    119 H119      -80.8210   25.0411  -78.7543 H         1 UNK         0.0807 
    120 H120      -81.5158   24.5215  -77.2184 H         1 UNK         0.0807 
    121 H121      -80.8536   23.3363  -78.3373 H         1 UNK         0.0807 
    122 H122      -79.9721   26.4357  -76.7999 H         1 UNK         0.2946 
    123 H123      -77.7139   27.5946  -74.4942 H         1 UNK         0.1144 
    124 H124      -77.2247   29.6548  -75.8105 H         1 UNK         0.0793 
    125 H125      -77.6203   28.8102  -77.3088 H         1 UNK         0.0793 
    126 H126      -76.2297   28.3181  -76.3488 H         1 UNK         0.0793 
    127 H127      -79.6502   29.1307  -75.8175 H         1 UNK         0.2896 
@<TRIPOS>BOND
     1    1    2 1    
     2    1   67 1    
     3    1   68 1    
     4    1   69 1    
     5    2    3 2    
     6    2    4 am   BACKBONE|DICT|INTERRES
     7    4    5 1    
     8    4   70 1    
     9    5    6 1    
    10    5   65 1    
    11    5   71 1    
    12    6    7 1    
    13    6   72 1    
    14    6   73 1    
    15    7    8 1    
    16    8    9 1    
    17    8   74 1    
    18    8   75 1    
    19    9   10 ar   
    20    9   14 ar   
    21   10   11 ar   
    22   10   76 1    
    23   11   12 ar   
    24   11   48 1    
    25   12   13 ar   
    26   12   77 1    
    27   13   14 ar   
    28   13   15 1    
    29   14   78 1    
    30   15   16 1    
    31   15   79 1    
    32   15   80 1    
    33   16   17 1    
    34   17   18 1    
    35   17   81 1    
    36   17   82 1    
    37   18   19 1    
    38   18   22 1    
    39   18   83 1    
    40   19   20 am   BACKBONE|DICT|INTERRES
    41   19   21 2    
    42   20   84 1    
    43   20   85 1    
    44   22   23 am   BACKBONE|DICT|INTERRES
    45   22   86 1    
    46   23   24 2    
    47   23   25 1    
    48   25   26 1    
    49   25   27 1    
    50   25   87 1    
    51   26   88 1    
    52   26   89 1    
    53   26   90 1    
    54   27   28 am   BACKBONE|DICT|INTERRES
    55   27   91 1    
    56   28   29 2    
    57   28   30 1    
    58   30   31 1    
    59   30   32 1    
    60   30   92 1    
    61   31   93 1    
    62   31   94 1    
    63   31   95 1    
    64   32   33 am   BACKBONE|DICT|INTERRES
    65   32   96 1    
    66   33   34 2    
    67   33   35 1    
    68   35   36 1    
    69   35   37 1    
    70   35   97 1    
    71   36   98 1    
    72   36   99 1    
    73   36  100 1    
    74   37   38 am   BACKBONE|DICT|INTERRES
    75   37  101 1    
    76   38   39 2    
    77   38   40 1    
    78   40   41 1    
    79   40   42 1    
    80   40  102 1    
    81   41  103 1    
    82   41  104 1    
    83   41  105 1    
    84   42   43 am   BACKBONE|DICT|INTERRES
    85   42  106 1    
    86   43   44 2    
    87   43   45 1    
    88   45   46 1    
    89   45   49 1    
    90   45  107 1    
    91   46   47 1    
    92   46  108 1    
    93   46  109 1    
    94   47   48 1    
    95   48  110 1    
    96   48  111 1    
    97   49   50 am   BACKBONE|DICT|INTERRES
    98   49  112 1    
    99   50   51 2    
   100   50   52 1    
   101   52   53 1    
   102   52   54 1    
   103   52  113 1    
   104   53  114 1    
   105   53  115 1    
   106   53  116 1    
   107   54   55 am   BACKBONE|DICT|INTERRES
   108   54  117 1    
   109   55   56 2    
   110   55   57 1    
   111   57   58 1    
   112   57   59 1    
   113   57  118 1    
   114   58  119 1    
   115   58  120 1    
   116   58  121 1    
   117   59   60 am   BACKBONE|DICT|INTERRES
   118   59  122 1    
   119   60   61 2    
   120   60   62 1    
   121   62   63 1    
   122   62   64 1    
   123   62  123 1    
   124   63  124 1    
   125   63  125 1    
   126   63  126 1    
   127   64   65 am   BACKBONE|DICT|INTERRES
   128   64  127 1    
   129   65   66 2    
@<TRIPOS>SUBSTRUCTURE
     1 UNK         1 GROUP             0       ****    0 ROOT    
