@<TRIPOS>MOLECULE
3R135
127   129    1
SMALL
USER_CHARGES


@<TRIPOS>ATOM
      1 CA        -84.5386   30.3324  -73.3614 C.3       0 UNK        -0.1998 
      2 C         -83.6745   29.0932  -73.1799 C.2       0 UNK         0.4909 
      3 O         -84.2117   27.9965  -73.0192 O.2       0 UNK        -0.5240 
      4 N         -82.3455   29.2685  -73.2037 N.am      1 UNK        -0.4739 
      5 CA        -81.3215   28.2198  -73.0784 C.3       1 UNK         0.0864 
      6 C6        -81.3359   27.4925  -71.6971 C.3       11 UNK        -0.0881 
      7 S7        -81.3956   28.5532  -70.2035 S.3       11 UNK        -0.2682 
      8 C8        -80.1541   29.8646  -70.4987 C.3       11 UNK         0.0289 
      9 C9        -78.7296   29.3814  -70.7723 C.ar      11 UNK        -0.0687 
     10 C10       -78.2552   28.1461  -70.3118 C.ar      11 UNK        -0.0823 
     11 C11       -76.9732   27.7050  -70.6504 C.ar      11 UNK        -0.0830 
     12 C12       -76.1353   28.5334  -71.4001 C.ar      11 UNK        -0.1021 
     13 C13       -76.5758   29.7872  -71.8255 C.ar      11 UNK        -0.0753 
     14 C14       -77.8729   30.2034  -71.5129 C.ar      11 UNK        -0.0933 
     15 C15       -75.6564   30.6767  -72.6446 C.3       11 UNK         0.0166 
     16 S16       -75.9603   30.4528  -74.4207 S.3       11 UNK        -0.2615 
     17 C17       -74.6052   31.4409  -75.1389 C.3       11 UNK        -0.0865 
     18 CA        -73.5816   30.5842  -75.9449 C.3       10 UNK         0.0862 
     19 C         -72.5692   31.4581  -76.7485 C.2       10 UNK         0.5551 
     20 N         -71.3471   30.9982  -76.9891 N.am      10 UNK        -0.7319 
     21 O         -72.8998   32.5575  -77.1874 O.2       10 UNK        -0.5018 
     22 N         -72.9565   29.4935  -75.1640 N.am      10 UNK        -0.4509 
     23 C         -72.1847   29.6631  -74.0816 C.2       10 UNK         0.4899 
     24 O         -71.9551   30.7666  -73.5849 O.2       10 UNK        -0.4839 
     25 CA        -71.5224   28.4329  -73.4379 C.3       9 UNK         0.0222 
     26 CB        -71.8415   28.3433  -71.9333 C.3       9 UNK        -0.1966 
     27 N         -71.8404   27.1448  -74.0690 N.am      9 UNK        -0.4218 
     28 C         -70.9371   26.1640  -74.2259 C.2       9 UNK         0.5020 
     29 O         -69.7272   26.3096  -74.0413 O.2       9 UNK        -0.5274 
     30 CA        -71.4565   24.7647  -74.5958 C.3       8 UNK         0.0270 
     31 CB        -72.1295   24.0987  -73.3835 C.3       8 UNK        -0.1976 
     32 N         -72.3675   24.7577  -75.7386 N.am      8 UNK        -0.4313 
     33 C         -71.9929   24.9579  -77.0096 C.2       8 UNK         0.5041 
     34 O         -70.8294   25.1617  -77.3591 O.2       8 UNK        -0.5577 
     35 CA        -73.1028   24.9279  -78.0766 C.3       7 UNK         0.0284 
     36 CB        -73.3892   23.4860  -78.5255 C.3       7 UNK        -0.1958 
     37 N         -74.3447   25.5611  -77.6267 N.am      7 UNK        -0.4454 
     38 C         -74.4531   26.8599  -77.3170 C.2       7 UNK         0.5089 
     39 O         -73.5349   27.6689  -77.4420 O.2       7 UNK        -0.5125 
     40 CA        -75.7853   27.3265  -76.7095 C.3       6 UNK         0.0408 
     41 CB        -76.8415   27.5670  -77.7976 C.3       6 UNK        -0.1791 
     42 N         -76.3027   26.4035  -75.6990 N.am      6 UNK        -0.4762 
     43 C         -75.6792   26.0905  -74.5535 C.2       6 UNK         0.5007 
     44 O         -74.6046   26.5792  -74.2000 O.2       6 UNK        -0.5032 
     45 CA        -76.3428   25.0032  -73.6845 C.3       5 UNK         0.0783 
     46 C46       -77.5229   25.5759  -72.8567 C.3       11 UNK        -0.0857 
     47 S47       -77.5063   25.0110  -71.1214 S.3       11 UNK        -0.2512 
     48 C48       -76.5199   26.3000  -70.2814 C.3       11 UNK         0.0225 
     49 N         -76.7709   23.8665  -74.5033 N.am      5 UNK        -0.4615 
     50 C         -75.9583   23.0468  -75.1803 C.2       4 UNK         0.5053 
     51 O         -74.7311   23.1104  -75.1385 O.2       4 UNK        -0.5105 
     52 CA        -76.6385   22.0132  -76.0943 C.3       4 UNK         0.0263 
     53 CB        -77.0367   20.7627  -75.2948 C.3       4 UNK        -0.1981 
     54 N         -77.8171   22.5595  -76.7758 N.am      4 UNK        -0.4224 
     55 C         -77.7675   23.5246  -77.7061 C.2       3 UNK         0.4895 
     56 O         -76.7187   24.0054  -78.1337 O.2       3 UNK        -0.5091 
     57 CA        -79.1113   24.0808  -78.2121 C.3       3 UNK         0.0250 
     58 CB        -79.6457   23.2257  -79.3718 C.3       3 UNK        -0.1996 
     59 N         -80.1387   24.1962  -77.1688 N.am      3 UNK        -0.4254 
     60 C         -80.0256   24.9487  -76.0647 C.2       2 UNK         0.5004 
     61 O         -79.0237   25.6133  -75.7960 O.2       2 UNK        -0.5226 
     62 CA        -81.1997   24.8862  -75.0711 C.3       2 UNK         0.0269 
     63 CB        -81.2072   23.5313  -74.3407 C.3       2 UNK        -0.1926 
     64 N         -81.1617   25.9500  -74.0617 N.am      2 UNK        -0.4687 
     65 C         -81.3754   27.2540  -74.2930 C.2       1 UNK         0.5165 
     66 O         -81.6205   27.7071  -75.4147 O.2       1 UNK        -0.5079 
     67 H67       -83.9393   31.2345  -73.4835 H         1 UNK         0.0900 
     68 H68       -85.1705   30.2232  -74.2424 H         1 UNK         0.0900 
     69 H69       -85.1835   30.4696  -72.4938 H         1 UNK         0.0900 
     70 H70       -81.9840   30.1950  -73.3799 H         1 UNK         0.2959 
     71 H71       -80.3597   28.7264  -73.1708 H         1 UNK         0.1079 
     72 H72       -80.4554   26.8551  -71.6013 H         1 UNK         0.0837 
     73 H73       -82.1967   26.8243  -71.6337 H         1 UNK         0.0837 
     74 H74       -80.5018   30.4873  -71.3238 H         1 UNK         0.0685 
     75 H75       -80.1299   30.5117  -69.6212 H         1 UNK         0.0685 
     76 H76       -78.8949   27.4955  -69.7325 H         1 UNK         0.1434 
     77 H77       -75.1510   28.1902  -71.6831 H         1 UNK         0.1329 
     78 H78       -78.2200   31.1657  -71.8643 H         1 UNK         0.1335 
     79 H79       -75.8095   31.7234  -72.3776 H         1 UNK         0.0680 
     80 H80       -74.6139   30.4467  -72.4199 H         1 UNK         0.0680 
     81 H81       -75.0728   32.1804  -75.7914 H         1 UNK         0.1032 
     82 H82       -74.1026   32.0173  -74.3611 H         1 UNK         0.1032 
     83 H83       -74.1562   30.0860  -76.7242 H         1 UNK         0.0461 
     84 H84       -71.0740   30.0867  -76.6590 H         1 UNK         0.3453 
     85 H85       -70.7000   31.5620  -77.5173 H         1 UNK         0.3453 
     86 H86       -73.0628   28.5704  -75.5657 H         1 UNK         0.2984 
     87 H87       -70.4525   28.6282  -73.5331 H         1 UNK         0.0554 
     88 H88       -71.6252   29.2813  -71.4202 H         1 UNK         0.0847 
     89 H89       -71.2454   27.5702  -71.4484 H         1 UNK         0.0847 
     90 H90       -72.8910   28.1100  -71.7616 H         1 UNK         0.0847 
     91 H91       -72.8294   26.9327  -74.2056 H         1 UNK         0.3141 
     92 H92       -70.5899   24.1556  -74.8626 H         1 UNK         0.0743 
     93 H93       -73.0323   24.6271  -73.0775 H         1 UNK         0.0784 
     94 H94       -72.4042   23.0665  -73.6013 H         1 UNK         0.0784 
     95 H95       -71.4566   24.0795  -72.5251 H         1 UNK         0.0784 
     96 H96       -73.3356   24.5170  -75.5498 H         1 UNK         0.3213 
     97 H97       -72.7421   25.4876  -78.9422 H         1 UNK         0.0855 
     98 H98       -73.7682   22.8749  -77.7061 H         1 UNK         0.0814 
     99 H99       -72.4832   23.0066  -78.8983 H         1 UNK         0.0814 
    100 H100      -74.1250   23.4597  -79.3295 H         1 UNK         0.0814 
    101 H101      -75.1719   24.9718  -77.5649 H         1 UNK         0.3105 
    102 H102      -75.6025   28.2755  -76.2090 H         1 UNK         0.0547 
    103 H103      -76.4994   28.3186  -78.5100 H         1 UNK         0.0837 
    104 H104      -77.0579   26.6602  -78.3611 H         1 UNK         0.0837 
    105 H105      -77.7771   27.9270  -77.3690 H         1 UNK         0.0837 
    106 H106      -77.2211   25.9976  -75.8717 H         1 UNK         0.3020 
    107 H107      -75.5655   24.6432  -73.0069 H         1 UNK         0.1245 
    108 H108      -78.4775   25.2597  -73.2751 H         1 UNK         0.0781 
    109 H109      -77.5735   26.6637  -72.9006 H         1 UNK         0.0781 
    110 H110      -75.4678   26.1546  -70.5318 H         1 UNK         0.0836 
    111 H111      -76.5999   26.1649  -69.2019 H         1 UNK         0.0836 
    112 H112      -77.7650   23.7727  -74.6420 H         1 UNK         0.3022 
    113 H113      -75.9141   21.7160  -76.8557 H         1 UNK         0.0747 
    114 H114      -77.4499   19.9914  -75.9451 H         1 UNK         0.0793 
    115 H115      -76.1699   20.3302  -74.7927 H         1 UNK         0.0793 
    116 H116      -77.7783   20.9889  -74.5276 H         1 UNK         0.0793 
    117 H117      -78.7198   22.2076  -76.4928 H         1 UNK         0.3047 
    118 H118      -78.9225   25.0863  -78.5931 H         1 UNK         0.0822 
    119 H119      -80.5410   23.6667  -79.8107 H         1 UNK         0.0807 
    120 H120      -79.8923   22.2131  -79.0502 H         1 UNK         0.0807 
    121 H121      -78.9049   23.1431  -80.1686 H         1 UNK         0.0807 
    122 H122      -80.9884   23.6697  -77.3145 H         1 UNK         0.2946 
    123 H123      -82.1272   24.9924  -75.6386 H         1 UNK         0.1144 
    124 H124      -80.2968   23.3787  -73.7594 H         1 UNK         0.0793 
    125 H125      -81.2899   22.6997  -75.0415 H         1 UNK         0.0793 
    126 H126      -82.0545   23.4549  -73.6587 H         1 UNK         0.0793 
    127 H127      -80.9559   25.6579  -73.1186 H         1 UNK         0.2896 
@<TRIPOS>BOND
     1    1    2 1    
     2    1   67 1    
     3    1   68 1    
     4    1   69 1    
     5    2    3 2    
     6    2    4 am   BACKBONE|DICT|INTERRES
     7    4    5 1    
     8    4   70 1    
     9    5    6 1    
    10    5   65 1    
    11    5   71 1    
    12    6    7 1    
    13    6   72 1    
    14    6   73 1    
    15    7    8 1    
    16    8    9 1    
    17    8   74 1    
    18    8   75 1    
    19    9   10 ar   
    20    9   14 ar   
    21   10   11 ar   
    22   10   76 1    
    23   11   12 ar   
    24   11   48 1    
    25   12   13 ar   
    26   12   77 1    
    27   13   14 ar   
    28   13   15 1    
    29   14   78 1    
    30   15   16 1    
    31   15   79 1    
    32   15   80 1    
    33   16   17 1    
    34   17   18 1    
    35   17   81 1    
    36   17   82 1    
    37   18   19 1    
    38   18   22 1    
    39   18   83 1    
    40   19   20 am   BACKBONE|DICT|INTERRES
    41   19   21 2    
    42   20   84 1    
    43   20   85 1    
    44   22   23 am   BACKBONE|DICT|INTERRES
    45   22   86 1    
    46   23   24 2    
    47   23   25 1    
    48   25   26 1    
    49   25   27 1    
    50   25   87 1    
    51   26   88 1    
    52   26   89 1    
    53   26   90 1    
    54   27   28 am   BACKBONE|DICT|INTERRES
    55   27   91 1    
    56   28   29 2    
    57   28   30 1    
    58   30   31 1    
    59   30   32 1    
    60   30   92 1    
    61   31   93 1    
    62   31   94 1    
    63   31   95 1    
    64   32   33 am   BACKBONE|DICT|INTERRES
    65   32   96 1    
    66   33   34 2    
    67   33   35 1    
    68   35   36 1    
    69   35   37 1    
    70   35   97 1    
    71   36   98 1    
    72   36   99 1    
    73   36  100 1    
    74   37   38 am   BACKBONE|DICT|INTERRES
    75   37  101 1    
    76   38   39 2    
    77   38   40 1    
    78   40   41 1    
    79   40   42 1    
    80   40  102 1    
    81   41  103 1    
    82   41  104 1    
    83   41  105 1    
    84   42   43 am   BACKBONE|DICT|INTERRES
    85   42  106 1    
    86   43   44 2    
    87   43   45 1    
    88   45   46 1    
    89   45   49 1    
    90   45  107 1    
    91   46   47 1    
    92   46  108 1    
    93   46  109 1    
    94   47   48 1    
    95   48  110 1    
    96   48  111 1    
    97   49   50 am   BACKBONE|DICT|INTERRES
    98   49  112 1    
    99   50   51 2    
   100   50   52 1    
   101   52   53 1    
   102   52   54 1    
   103   52  113 1    
   104   53  114 1    
   105   53  115 1    
   106   53  116 1    
   107   54   55 am   BACKBONE|DICT|INTERRES
   108   54  117 1    
   109   55   56 2    
   110   55   57 1    
   111   57   58 1    
   112   57   59 1    
   113   57  118 1    
   114   58  119 1    
   115   58  120 1    
   116   58  121 1    
   117   59   60 am   BACKBONE|DICT|INTERRES
   118   59  122 1    
   119   60   61 2    
   120   60   62 1    
   121   62   63 1    
   122   62   64 1    
   123   62  123 1    
   124   63  124 1    
   125   63  125 1    
   126   63  126 1    
   127   64   65 am   BACKBONE|DICT|INTERRES
   128   64  127 1    
   129   65   66 2    
@<TRIPOS>SUBSTRUCTURE
     1 UNK         1 GROUP             0       ****    0 ROOT    
