@<TRIPOS>MOLECULE
3R135
127   129    1
SMALL
USER_CHARGES


@<TRIPOS>ATOM
      1 CA        -84.7850   26.5755  -71.7631 C.3       0 UNK        -0.1998 
      2 C         -84.4180   27.0778  -73.1514 C.2       0 UNK         0.4909 
      3 O         -84.9642   26.5935  -74.1432 O.2       0 UNK        -0.5240 
      4 N         -83.5055   28.0532  -73.2283 N.am      1 UNK        -0.4739 
      5 CA        -82.9517   28.5924  -74.4732 C.3       1 UNK         0.0864 
      6 C6        -82.2627   29.9704  -74.2544 C.3       11 UNK        -0.0881 
      7 S7        -81.1316   30.0506  -72.8154 S.3       11 UNK        -0.2682 
      8 C8        -79.5109   29.7842  -73.6055 C.3       11 UNK         0.0289 
      9 C9        -78.5198   29.1038  -72.6680 C.ar      11 UNK        -0.0687 
     10 C10       -78.8296   27.8662  -72.0922 C.ar      11 UNK        -0.0823 
     11 C11       -77.9213   27.2226  -71.2473 C.ar      11 UNK        -0.0830 
     12 C12       -76.6864   27.8215  -70.9858 C.ar      11 UNK        -0.1021 
     13 C13       -76.3547   29.0480  -71.5696 C.ar      11 UNK        -0.0753 
     14 C14       -77.2763   29.6876  -72.4054 C.ar      11 UNK        -0.0933 
     15 C15       -74.9910   29.6670  -71.3089 C.3       11 UNK         0.0166 
     16 S16       -73.7291   28.8527  -72.3285 S.3       11 UNK        -0.2615 
     17 C17       -72.2175   29.7728  -71.8773 C.3       11 UNK        -0.0865 
     18 CA        -71.7597   30.7792  -72.9680 C.3       10 UNK         0.0862 
     19 C         -70.4131   31.4443  -72.5584 C.2       10 UNK         0.5551 
     20 N         -69.3049   31.1713  -73.2366 N.am      10 UNK        -0.7319 
     21 O         -70.3776   32.2190  -71.6056 O.2       10 UNK        -0.5018 
     22 N         -71.7778   30.1653  -74.3047 N.am      10 UNK        -0.4509 
     23 C         -71.6722   30.8026  -75.4764 C.2       10 UNK         0.4899 
     24 O         -71.5048   32.0184  -75.5798 O.2       10 UNK        -0.4839 
     25 CA        -71.8234   29.9482  -76.7514 C.3       9 UNK         0.0222 
     26 CB        -70.8259   30.3561  -77.8565 C.3       9 UNK        -0.1966 
     27 N         -71.8041   28.4969  -76.5114 N.am      9 UNK        -0.4218 
     28 C         -70.7662   27.7362  -76.1219 C.2       9 UNK         0.5020 
     29 O         -69.6384   28.1826  -75.9077 O.2       9 UNK        -0.5274 
     30 CA        -71.0189   26.2308  -75.8899 C.3       8 UNK         0.0270 
     31 CB        -70.8505   25.8853  -74.4005 C.3       8 UNK        -0.1976 
     32 N         -72.3393   25.7793  -76.3410 N.am      8 UNK        -0.4313 
     33 C         -72.6861   25.6104  -77.6269 C.2       8 UNK         0.5041 
     34 O         -71.8855   25.6985  -78.5586 O.2       8 UNK        -0.5577 
     35 CA        -74.1706   25.3389  -77.9505 C.3       7 UNK         0.0284 
     36 CB        -74.3789   23.8701  -78.3526 C.3       7 UNK        -0.1958 
     37 N         -75.1077   25.6805  -76.8760 N.am      7 UNK        -0.4454 
     38 C         -75.2702   26.8939  -76.3289 C.2       7 UNK         0.5089 
     39 O         -74.6572   27.8979  -76.6922 O.2       7 UNK        -0.5125 
     40 CA        -76.2442   26.9851  -75.1430 C.3       6 UNK         0.0408 
     41 CB        -77.6606   27.2768  -75.6579 C.3       6 UNK        -0.1791 
     42 N         -76.2671   25.7725  -74.3172 N.am      6 UNK        -0.4762 
     43 C         -75.2172   25.2538  -73.6623 C.2       6 UNK         0.5007 
     44 O         -74.0778   25.7149  -73.7200 O.2       6 UNK        -0.5032 
     45 CA        -75.4681   23.9520  -72.8762 C.3       5 UNK         0.0783 
     46 C46       -76.2197   24.1887  -71.5405 C.3       11 UNK        -0.0857 
     47 S47       -78.0168   24.4834  -71.7187 S.3       11 UNK        -0.2512 
     48 C48       -78.2917   25.8951  -70.6019 C.3       11 UNK         0.0225 
     49 N         -76.1160   22.9435  -73.7190 N.am      5 UNK        -0.4615 
     50 C         -75.5247   22.3181  -74.7456 C.2       4 UNK         0.5053 
     51 O         -74.3276   22.4252  -75.0091 O.2       4 UNK        -0.5105 
     52 CA        -76.4139   21.4383  -75.6459 C.3       4 UNK         0.0263 
     53 CB        -76.3267   19.9670  -75.2101 C.3       4 UNK        -0.1981 
     54 N         -77.8239   21.8473  -75.6944 N.am      4 UNK        -0.4224 
     55 C         -78.2648   23.0354  -76.1303 C.2       3 UNK         0.4895 
     56 O         -77.5201   23.9313  -76.5409 O.2       3 UNK        -0.5091 
     57 CA        -79.7816   23.2725  -76.0672 C.3       3 UNK         0.0250 
     58 CB        -80.2991   23.1928  -74.6140 C.3       3 UNK        -0.1996 
     59 N         -80.0510   24.5950  -76.6227 N.am      3 UNK        -0.4254 
     60 C         -81.2444   25.1341  -76.8891 C.2       2 UNK         0.5004 
     61 O         -82.3163   24.5300  -76.8063 O.2       2 UNK        -0.5226 
     62 CA        -81.2344   26.6133  -77.3209 C.3       2 UNK         0.0269 
     63 CB        -81.6681   26.7557  -78.7894 C.3       2 UNK        -0.1926 
     64 N         -82.0825   27.4666  -76.4791 N.am      2 UNK        -0.4687 
     65 C         -82.0057   27.5720  -75.1428 C.2       1 UNK         0.5165 
     66 O         -81.2054   26.9410  -74.4489 O.2       1 UNK        -0.5079 
     67 H67       -85.8504   26.7153  -71.5823 H         1 UNK         0.0900 
     68 H68       -84.2364   27.1011  -70.9816 H         1 UNK         0.0900 
     69 H69       -84.5607   25.5125  -71.6781 H         1 UNK         0.0900 
     70 H70       -83.0628   28.3967  -72.3873 H         1 UNK         0.2959 
     71 H71       -83.7904   28.7535  -75.1546 H         1 UNK         0.1079 
     72 H72       -81.7421   30.2994  -75.1561 H         1 UNK         0.0837 
     73 H73       -83.0359   30.7215  -74.0854 H         1 UNK         0.0837 
     74 H74       -79.1285   30.7463  -73.9493 H         1 UNK         0.0685 
     75 H75       -79.6274   29.1672  -74.4949 H         1 UNK         0.0685 
     76 H76       -79.7840   27.4033  -72.3035 H         1 UNK         0.1434 
     77 H77       -75.9739   27.3307  -70.3374 H         1 UNK         0.1329 
     78 H78       -77.0183   30.6334  -72.8616 H         1 UNK         0.1335 
     79 H79       -75.0027   30.7356  -71.5293 H         1 UNK         0.0680 
     80 H80       -74.7327   29.5649  -70.2537 H         1 UNK         0.0680 
     81 H81       -72.3732   30.2854  -70.9260 H         1 UNK         0.1032 
     82 H82       -71.4333   29.0357  -71.6932 H         1 UNK         0.1032 
     83 H83       -72.4961   31.5846  -72.9943 H         1 UNK         0.0461 
     84 H84       -68.4369   31.6066  -72.9671 H         1 UNK         0.3453 
     85 H85       -69.3333   30.5361  -74.0194 H         1 UNK         0.3453 
     86 H86       -71.9426   29.1703  -74.3209 H         1 UNK         0.2984 
     87 H87       -72.8249   30.1615  -77.1274 H         1 UNK         0.0554 
     88 H88       -70.9539   29.7475  -78.7515 H         1 UNK         0.0847 
     89 H89       -69.7909   30.2588  -77.5282 H         1 UNK         0.0847 
     90 H90       -70.9727   31.3961  -78.1505 H         1 UNK         0.0847 
     91 H91       -72.7111   28.0486  -76.6178 H         1 UNK         0.3141 
     92 H92       -70.2596   25.6837  -76.4526 H         1 UNK         0.0743 
     93 H93       -69.8368   26.1029  -74.0615 H         1 UNK         0.0784 
     94 H94       -71.5315   26.4613  -73.7725 H         1 UNK         0.0784 
     95 H95       -71.0344   24.8273  -74.2125 H         1 UNK         0.0784 
     96 H96       -73.0520   25.6835  -75.6243 H         1 UNK         0.3213 
     97 H97       -74.4275   25.9651  -78.8072 H         1 UNK         0.0855 
     98 H98       -74.1074   23.1901  -77.5455 H         1 UNK         0.0814 
     99 H99       -73.7630   23.6113  -79.2149 H         1 UNK         0.0814 
    100 H100      -75.4163   23.6731  -78.6246 H         1 UNK         0.0814 
    101 H101      -75.7121   24.9361  -76.5420 H         1 UNK         0.3105 
    102 H102      -75.9284   27.8090  -74.4998 H         1 UNK         0.0547 
    103 H103      -77.9383   26.6015  -76.4656 H         1 UNK         0.0837 
    104 H104      -78.4057   27.1758  -74.8700 H         1 UNK         0.0837 
    105 H105      -77.7267   28.2927  -76.0487 H         1 UNK         0.0837 
    106 H106      -77.1575   25.3064  -74.2231 H         1 UNK         0.3020 
    107 H107      -74.4793   23.5659  -72.6159 H         1 UNK         0.1245 
    108 H108      -75.7563   25.0052  -70.9848 H         1 UNK         0.0781 
    109 H109      -76.1028   23.3082  -70.9070 H         1 UNK         0.0781 
    110 H110      -77.7390   25.7462  -69.6730 H         1 UNK         0.0836 
    111 H111      -79.3461   25.9143  -70.3220 H         1 UNK         0.0836 
    112 H112      -77.1007   22.7943  -73.5559 H         1 UNK         0.3022 
    113 H113      -76.0180   21.5170  -76.6607 H         1 UNK         0.0747 
    114 H114      -76.8661   19.3155  -75.8979 H         1 UNK         0.0793 
    115 H115      -75.2903   19.6262  -75.1913 H         1 UNK         0.0793 
    116 H116      -76.7370   19.8165  -74.2107 H         1 UNK         0.0793 
    117 H117      -78.4994   21.1667  -75.3770 H         1 UNK         0.3047 
    118 H118      -80.2748   22.5189  -76.6840 H         1 UNK         0.0822 
    119 H119      -80.0545   22.2406  -74.1430 H         1 UNK         0.0807 
    120 H120      -81.3835   23.2931  -74.5709 H         1 UNK         0.0807 
    121 H121      -79.8753   23.9859  -73.9975 H         1 UNK         0.0807 
    122 H122      -79.2040   25.1254  -76.7839 H         1 UNK         0.2946 
    123 H123      -80.2168   26.9972  -77.2335 H         1 UNK         0.1144 
    124 H124      -81.0409   26.1469  -79.4423 H         1 UNK         0.0793 
    125 H125      -81.5841   27.7871  -79.1323 H         1 UNK         0.0793 
    126 H126      -82.7000   26.4341  -78.9374 H         1 UNK         0.0793 
    127 H127      -82.7827   28.0076  -76.9656 H         1 UNK         0.2896 
@<TRIPOS>BOND
     1    1    2 1    
     2    1   67 1    
     3    1   68 1    
     4    1   69 1    
     5    2    3 2    
     6    2    4 am   BACKBONE|DICT|INTERRES
     7    4    5 1    
     8    4   70 1    
     9    5    6 1    
    10    5   65 1    
    11    5   71 1    
    12    6    7 1    
    13    6   72 1    
    14    6   73 1    
    15    7    8 1    
    16    8    9 1    
    17    8   74 1    
    18    8   75 1    
    19    9   10 ar   
    20    9   14 ar   
    21   10   11 ar   
    22   10   76 1    
    23   11   12 ar   
    24   11   48 1    
    25   12   13 ar   
    26   12   77 1    
    27   13   14 ar   
    28   13   15 1    
    29   14   78 1    
    30   15   16 1    
    31   15   79 1    
    32   15   80 1    
    33   16   17 1    
    34   17   18 1    
    35   17   81 1    
    36   17   82 1    
    37   18   19 1    
    38   18   22 1    
    39   18   83 1    
    40   19   20 am   BACKBONE|DICT|INTERRES
    41   19   21 2    
    42   20   84 1    
    43   20   85 1    
    44   22   23 am   BACKBONE|DICT|INTERRES
    45   22   86 1    
    46   23   24 2    
    47   23   25 1    
    48   25   26 1    
    49   25   27 1    
    50   25   87 1    
    51   26   88 1    
    52   26   89 1    
    53   26   90 1    
    54   27   28 am   BACKBONE|DICT|INTERRES
    55   27   91 1    
    56   28   29 2    
    57   28   30 1    
    58   30   31 1    
    59   30   32 1    
    60   30   92 1    
    61   31   93 1    
    62   31   94 1    
    63   31   95 1    
    64   32   33 am   BACKBONE|DICT|INTERRES
    65   32   96 1    
    66   33   34 2    
    67   33   35 1    
    68   35   36 1    
    69   35   37 1    
    70   35   97 1    
    71   36   98 1    
    72   36   99 1    
    73   36  100 1    
    74   37   38 am   BACKBONE|DICT|INTERRES
    75   37  101 1    
    76   38   39 2    
    77   38   40 1    
    78   40   41 1    
    79   40   42 1    
    80   40  102 1    
    81   41  103 1    
    82   41  104 1    
    83   41  105 1    
    84   42   43 am   BACKBONE|DICT|INTERRES
    85   42  106 1    
    86   43   44 2    
    87   43   45 1    
    88   45   46 1    
    89   45   49 1    
    90   45  107 1    
    91   46   47 1    
    92   46  108 1    
    93   46  109 1    
    94   47   48 1    
    95   48  110 1    
    96   48  111 1    
    97   49   50 am   BACKBONE|DICT|INTERRES
    98   49  112 1    
    99   50   51 2    
   100   50   52 1    
   101   52   53 1    
   102   52   54 1    
   103   52  113 1    
   104   53  114 1    
   105   53  115 1    
   106   53  116 1    
   107   54   55 am   BACKBONE|DICT|INTERRES
   108   54  117 1    
   109   55   56 2    
   110   55   57 1    
   111   57   58 1    
   112   57   59 1    
   113   57  118 1    
   114   58  119 1    
   115   58  120 1    
   116   58  121 1    
   117   59   60 am   BACKBONE|DICT|INTERRES
   118   59  122 1    
   119   60   61 2    
   120   60   62 1    
   121   62   63 1    
   122   62   64 1    
   123   62  123 1    
   124   63  124 1    
   125   63  125 1    
   126   63  126 1    
   127   64   65 am   BACKBONE|DICT|INTERRES
   128   64  127 1    
   129   65   66 2    
@<TRIPOS>SUBSTRUCTURE
     1 UNK         1 GROUP             0       ****    0 ROOT    
