@<TRIPOS>MOLECULE
3R135
127   129    1
SMALL
USER_CHARGES


@<TRIPOS>ATOM
      1 CA        -77.6407   31.7022  -74.8729 C.3       0 UNK        -0.1998 
      2 C         -78.3109   30.3581  -74.6343 C.2       0 UNK         0.4909 
      3 O         -77.7913   29.3321  -75.0734 O.2       0 UNK        -0.5240 
      4 N         -79.4567   30.3558  -73.9391 N.am      1 UNK        -0.4739 
      5 CA        -80.2344   29.1621  -73.5786 C.3       1 UNK         0.0864 
      6 C6        -81.4616   29.5049  -72.6967 C.3       11 UNK        -0.0881 
      7 S7        -81.0312   30.4684  -71.2078 S.3       11 UNK        -0.2682 
      8 C8        -80.9139   29.1687  -69.9342 C.3       11 UNK         0.0289 
      9 C9        -79.7266   28.2355  -70.1435 C.ar      11 UNK        -0.0687 
     10 C10       -79.9149   26.8500  -70.1764 C.ar      11 UNK        -0.0823 
     11 C11       -78.8246   25.9867  -70.3269 C.ar      11 UNK        -0.0830 
     12 C12       -77.5399   26.5198  -70.4717 C.ar      11 UNK        -0.1021 
     13 C13       -77.3371   27.9034  -70.4451 C.ar      11 UNK        -0.0753 
     14 C14       -78.4328   28.7526  -70.2646 C.ar      11 UNK        -0.0933 
     15 C15       -75.9341   28.4820  -70.5731 C.3       11 UNK         0.0166 
     16 S16       -75.7843   29.5821  -72.0145 S.3       11 UNK        -0.2615 
     17 C17       -74.0150   30.0071  -71.9307 C.3       11 UNK        -0.0865 
     18 CA        -73.5814   30.9688  -73.0686 C.3       10 UNK         0.0862 
     19 C         -72.1229   31.4676  -72.8410 C.2       10 UNK         0.5551 
     20 N         -71.1746   31.1959  -73.7287 N.am      10 UNK        -0.7319 
     21 O         -71.8493   32.1194  -71.8362 O.2       10 UNK        -0.5018 
     22 N         -73.8563   30.3938  -74.3994 N.am      10 UNK        -0.4509 
     23 C         -73.9360   31.0935  -75.5377 C.2       10 UNK         0.4899 
     24 O         -73.7450   32.3081  -75.6071 O.2       10 UNK        -0.4839 
     25 CA        -74.2683   30.2905  -76.8055 C.3       9 UNK         0.0222 
     26 CB        -74.2621   31.1569  -78.0839 C.3       9 UNK        -0.1966 
     27 N         -73.3472   29.1585  -76.9406 N.am      9 UNK        -0.4218 
     28 C         -73.5750   28.0645  -77.6778 C.2       9 UNK         0.5020 
     29 O         -74.5858   27.9086  -78.3641 O.2       9 UNK        -0.5274 
     30 CA        -72.5008   26.9633  -77.6718 C.3       8 UNK         0.0270 
     31 CB        -71.5385   27.0044  -76.4636 C.3       8 UNK        -0.1976 
     32 N         -73.1500   25.6539  -77.7714 N.am      8 UNK        -0.4313 
     33 C         -72.6325   24.5859  -78.3856 C.2       8 UNK         0.5041 
     34 O         -71.4911   24.5508  -78.8508 O.2       8 UNK        -0.5577 
     35 CA        -73.5273   23.3407  -78.4599 C.3       7 UNK         0.0284 
     36 CB        -73.0101   22.2920  -79.4683 C.3       7 UNK        -0.1958 
     37 N         -73.6379   22.7546  -77.1256 N.am      7 UNK        -0.4454 
     38 C         -74.6219   21.9411  -76.7215 C.2       7 UNK         0.5089 
     39 O         -75.5338   21.5595  -77.4572 O.2       7 UNK        -0.5125 
     40 CA        -74.5974   21.4683  -75.2542 C.3       6 UNK         0.0408 
     41 CB        -73.2334   21.6500  -74.5574 C.3       6 UNK        -0.1791 
     42 N         -75.6106   22.2050  -74.5064 N.am      6 UNK        -0.4762 
     43 C         -76.9094   21.8955  -74.4029 C.2       6 UNK         0.5007 
     44 O         -77.3796   20.8143  -74.7600 O.2       6 UNK        -0.5032 
     45 CA        -77.8623   22.9800  -73.8468 C.3       5 UNK         0.0783 
     46 C46       -78.2865   22.7038  -72.3822 C.3       11 UNK        -0.0857 
     47 S47       -79.6419   23.8132  -71.8538 S.3       11 UNK        -0.2512 
     48 C48       -79.0333   24.4796  -70.2718 C.3       11 UNK         0.0225 
     49 N         -77.3878   24.3516  -74.0828 N.am      5 UNK        -0.4615 
     50 C         -76.3588   24.9901  -73.5093 C.2       4 UNK         0.5053 
     51 O         -75.6472   24.4789  -72.6449 O.2       4 UNK        -0.5105 
     52 CA        -76.0275   26.4114  -74.0027 C.3       4 UNK         0.0263 
     53 CB        -74.5065   26.6358  -74.0979 C.3       4 UNK        -0.1981 
     54 N         -76.6897   26.7931  -75.2547 N.am      4 UNK        -0.4224 
     55 C         -76.5686   26.2235  -76.4622 C.2       3 UNK         0.4895 
     56 O         -75.7681   25.3225  -76.7192 O.2       3 UNK        -0.5091 
     57 CA        -77.5642   26.7171  -77.5319 C.3       3 UNK         0.0250 
     58 CB        -77.4962   25.8947  -78.8364 C.3       3 UNK        -0.1996 
     59 N         -78.9416   26.7687  -77.0140 N.am      3 UNK        -0.4254 
     60 C         -79.6403   25.7534  -76.4801 C.2       2 UNK         0.5004 
     61 O         -79.2290   24.5945  -76.4259 O.2       2 UNK        -0.5226 
     62 CA        -80.9785   26.1152  -75.8110 C.3       2 UNK         0.0269 
     63 CB        -81.7290   24.8806  -75.2761 C.3       2 UNK        -0.1926 
     64 N         -80.7338   27.0361  -74.6987 N.am      2 UNK        -0.4687 
     65 C         -80.6814   28.3673  -74.8232 C.2       1 UNK         0.5165 
     66 O         -80.9577   28.9590  -75.8704 O.2       1 UNK        -0.5079 
     67 H67       -76.7235   31.7680  -74.2884 H         1 UNK         0.0900 
     68 H68       -77.3841   31.8135  -75.9260 H         1 UNK         0.0900 
     69 H69       -78.2855   32.5340  -74.5905 H         1 UNK         0.0900 
     70 H70       -79.8361   31.2294  -73.6040 H         1 UNK         0.2959 
     71 H71       -79.5623   28.5218  -73.0032 H         1 UNK         0.1079 
     72 H72       -81.9830   28.5953  -72.3916 H         1 UNK         0.0837 
     73 H73       -82.1865   30.0887  -73.2677 H         1 UNK         0.0837 
     74 H74       -80.8110   29.6462  -68.9589 H         1 UNK         0.0685 
     75 H75       -81.8521   28.6123  -69.9050 H         1 UNK         0.0685 
     76 H76       -80.9083   26.4377  -70.0612 H         1 UNK         0.1434 
     77 H77       -76.6946   25.8544  -70.5832 H         1 UNK         0.1329 
     78 H78       -78.2779   29.8225  -70.2294 H         1 UNK         0.1335 
     79 H79       -75.1955   27.6833  -70.6593 H         1 UNK         0.0680 
     80 H80       -75.6916   29.0383  -69.6665 H         1 UNK         0.0680 
     81 H81       -73.8285   30.4590  -70.9542 H         1 UNK         0.1032 
     82 H82       -73.4260   29.0886  -71.9615 H         1 UNK         0.1032 
     83 H83       -74.2033   31.8622  -72.9823 H         1 UNK         0.0461 
     84 H84       -70.2377   31.5300  -73.5660 H         1 UNK         0.3453 
     85 H85       -71.3876   30.6784  -74.5633 H         1 UNK         0.3453 
     86 H86       -74.0656   29.4080  -74.4169 H         1 UNK         0.2984 
     87 H87       -75.2786   29.8994  -76.6637 H         1 UNK         0.0554 
     88 H88       -74.9455   32.0016  -77.9882 H         1 UNK         0.0847 
     89 H89       -74.5816   30.5881  -78.9569 H         1 UNK         0.0847 
     90 H90       -73.2700   31.5592  -78.2911 H         1 UNK         0.0847 
     91 H91       -72.4826   29.2202  -76.4222 H         1 UNK         0.3141 
     92 H92       -71.9119   27.1261  -78.5770 H         1 UNK         0.0743 
     93 H93       -72.0649   26.9352  -75.5131 H         1 UNK         0.0784 
     94 H94       -70.8264   26.1798  -76.5026 H         1 UNK         0.0784 
     95 H95       -70.9483   27.9212  -76.4536 H         1 UNK         0.0784 
     96 H96       -74.1141   25.6080  -77.4353 H         1 UNK         0.3213 
     97 H97       -74.5162   23.6738  -78.7844 H         1 UNK         0.0855 
     98 H98       -72.0477   21.8800  -79.1629 H         1 UNK         0.0814 
     99 H99       -72.8789   22.7337  -80.4569 H         1 UNK         0.0814 
    100 H100      -73.7091   21.4629  -79.5779 H         1 UNK         0.0814 
    101 H101      -72.9335   23.0423  -76.4607 H         1 UNK         0.3105 
    102 H102      -74.8379   20.4033  -75.2487 H         1 UNK         0.0547 
    103 H103      -73.2478   21.2107  -73.5598 H         1 UNK         0.0837 
    104 H104      -72.9594   22.6998  -74.4450 H         1 UNK         0.0837 
    105 H105      -72.4372   21.1507  -75.1115 H         1 UNK         0.0837 
    106 H106      -75.3323   23.1053  -74.1344 H         1 UNK         0.3020 
    107 H107      -78.7624   22.8886  -74.4573 H         1 UNK         0.1245 
    108 H108      -77.4300   22.7867  -71.7129 H         1 UNK         0.0781 
    109 H109      -78.6483   21.6790  -72.2791 H         1 UNK         0.0781 
    110 H110      -78.1140   23.9813  -69.9628 H         1 UNK         0.0836 
    111 H111      -79.7649   24.2464  -69.4967 H         1 UNK         0.0836 
    112 H112      -77.8638   24.8141  -74.8480 H         1 UNK         0.3022 
    113 H113      -76.4266   27.0859  -73.2471 H         1 UNK         0.0747 
    114 H114      -74.2769   27.6161  -74.5081 H         1 UNK         0.0793 
    115 H115      -74.0399   26.5762  -73.1138 H         1 UNK         0.0793 
    116 H116      -74.0322   25.8841  -74.7292 H         1 UNK         0.0793 
    117 H117      -77.3004   27.6077  -75.1808 H         1 UNK         0.3047 
    118 H118      -77.2794   27.7439  -77.7674 H         1 UNK         0.0822 
    119 H119      -78.1980   26.2707  -79.5804 H         1 UNK         0.0807 
    120 H120      -77.7181   24.8408  -78.6648 H         1 UNK         0.0807 
    121 H121      -76.4987   25.9484  -79.2749 H         1 UNK         0.0807 
    122 H122      -79.3532   27.6931  -76.9607 H         1 UNK         0.2946 
    123 H123      -81.6093   26.5885  -76.5675 H         1 UNK         0.1144 
    124 H124      -82.6861   25.1595  -74.8353 H         1 UNK         0.0793 
    125 H125      -81.1527   24.3515  -74.5162 H         1 UNK         0.0793 
    126 H126      -81.9371   24.1724  -76.0792 H         1 UNK         0.0793 
    127 H127      -80.4888   26.6121  -73.8145 H         1 UNK         0.2896 
@<TRIPOS>BOND
     1    1    2 1    
     2    1   67 1    
     3    1   68 1    
     4    1   69 1    
     5    2    3 2    
     6    2    4 am   BACKBONE|DICT|INTERRES
     7    4    5 1    
     8    4   70 1    
     9    5    6 1    
    10    5   65 1    
    11    5   71 1    
    12    6    7 1    
    13    6   72 1    
    14    6   73 1    
    15    7    8 1    
    16    8    9 1    
    17    8   74 1    
    18    8   75 1    
    19    9   10 ar   
    20    9   14 ar   
    21   10   11 ar   
    22   10   76 1    
    23   11   12 ar   
    24   11   48 1    
    25   12   13 ar   
    26   12   77 1    
    27   13   14 ar   
    28   13   15 1    
    29   14   78 1    
    30   15   16 1    
    31   15   79 1    
    32   15   80 1    
    33   16   17 1    
    34   17   18 1    
    35   17   81 1    
    36   17   82 1    
    37   18   19 1    
    38   18   22 1    
    39   18   83 1    
    40   19   20 am   BACKBONE|DICT|INTERRES
    41   19   21 2    
    42   20   84 1    
    43   20   85 1    
    44   22   23 am   BACKBONE|DICT|INTERRES
    45   22   86 1    
    46   23   24 2    
    47   23   25 1    
    48   25   26 1    
    49   25   27 1    
    50   25   87 1    
    51   26   88 1    
    52   26   89 1    
    53   26   90 1    
    54   27   28 am   BACKBONE|DICT|INTERRES
    55   27   91 1    
    56   28   29 2    
    57   28   30 1    
    58   30   31 1    
    59   30   32 1    
    60   30   92 1    
    61   31   93 1    
    62   31   94 1    
    63   31   95 1    
    64   32   33 am   BACKBONE|DICT|INTERRES
    65   32   96 1    
    66   33   34 2    
    67   33   35 1    
    68   35   36 1    
    69   35   37 1    
    70   35   97 1    
    71   36   98 1    
    72   36   99 1    
    73   36  100 1    
    74   37   38 am   BACKBONE|DICT|INTERRES
    75   37  101 1    
    76   38   39 2    
    77   38   40 1    
    78   40   41 1    
    79   40   42 1    
    80   40  102 1    
    81   41  103 1    
    82   41  104 1    
    83   41  105 1    
    84   42   43 am   BACKBONE|DICT|INTERRES
    85   42  106 1    
    86   43   44 2    
    87   43   45 1    
    88   45   46 1    
    89   45   49 1    
    90   45  107 1    
    91   46   47 1    
    92   46  108 1    
    93   46  109 1    
    94   47   48 1    
    95   48  110 1    
    96   48  111 1    
    97   49   50 am   BACKBONE|DICT|INTERRES
    98   49  112 1    
    99   50   51 2    
   100   50   52 1    
   101   52   53 1    
   102   52   54 1    
   103   52  113 1    
   104   53  114 1    
   105   53  115 1    
   106   53  116 1    
   107   54   55 am   BACKBONE|DICT|INTERRES
   108   54  117 1    
   109   55   56 2    
   110   55   57 1    
   111   57   58 1    
   112   57   59 1    
   113   57  118 1    
   114   58  119 1    
   115   58  120 1    
   116   58  121 1    
   117   59   60 am   BACKBONE|DICT|INTERRES
   118   59  122 1    
   119   60   61 2    
   120   60   62 1    
   121   62   63 1    
   122   62   64 1    
   123   62  123 1    
   124   63  124 1    
   125   63  125 1    
   126   63  126 1    
   127   64   65 am   BACKBONE|DICT|INTERRES
   128   64  127 1    
   129   65   66 2    
@<TRIPOS>SUBSTRUCTURE
     1 UNK         1 GROUP             0       ****    0 ROOT    
