@<TRIPOS>MOLECULE
3R135
127   129    1
SMALL
USER_CHARGES


@<TRIPOS>ATOM
      1 CA        -83.5115   23.3183  -73.7302 C.3       0 UNK        -0.1998 
      2 C         -82.9294   24.7176  -73.8534 C.2       0 UNK         0.4909 
      3 O         -82.9457   25.2965  -74.9401 O.2       0 UNK        -0.5240 
      4 N         -82.4176   25.2712  -72.7462 N.am      1 UNK        -0.4739 
      5 CA        -81.8448   26.6199  -72.6862 C.3       1 UNK         0.0864 
      6 C6        -81.6419   27.0898  -71.2253 C.3       11 UNK        -0.0881 
      7 S7        -81.6702   28.9116  -71.0850 S.3       11 UNK        -0.2682 
      8 C8        -80.2941   29.2444  -69.9395 C.3       11 UNK         0.0289 
      9 C9        -78.9377   28.9542  -70.5647 C.ar      11 UNK        -0.0687 
     10 C10       -78.2547   27.7778  -70.2428 C.ar      11 UNK        -0.0823 
     11 C11       -77.0118   27.5009  -70.8154 C.ar      11 UNK        -0.0830 
     12 C12       -76.4394   28.4241  -71.6951 C.ar      11 UNK        -0.1021 
     13 C13       -77.1150   29.5983  -72.0346 C.ar      11 UNK        -0.0753 
     14 C14       -78.3635   29.8615  -71.4619 C.ar      11 UNK        -0.0933 
     15 C15       -76.5208   30.5502  -73.0623 C.3       11 UNK         0.0166 
     16 S16       -75.5946   31.9206  -72.3049 S.3       11 UNK        -0.2615 
     17 C17       -74.0524   31.1262  -71.7321 C.3       11 UNK        -0.0865 
     18 CA        -72.9155   31.1991  -72.7908 C.3       10 UNK         0.0862 
     19 C         -71.5020   31.0233  -72.1568 C.2       10 UNK         0.5551 
     20 N         -70.5884   30.2600  -72.7450 N.am      10 UNK        -0.7319 
     21 O         -71.2161   31.6064  -71.1139 O.2       10 UNK        -0.5018 
     22 N         -73.1663   30.2697  -73.9058 N.am      10 UNK        -0.4509 
     23 C         -73.0309   30.5583  -75.2054 C.2       10 UNK         0.4899 
     24 O         -72.7524   31.6788  -75.6355 O.2       10 UNK        -0.4839 
     25 CA        -73.2311   29.3801  -76.1847 C.3       9 UNK         0.0222 
     26 CB        -72.7231   29.6938  -77.6073 C.3       9 UNK        -0.1966 
     27 N         -72.6583   28.1103  -75.7130 N.am      9 UNK        -0.4218 
     28 C         -71.3892   27.8787  -75.3374 C.2       9 UNK         0.5020 
     29 O         -70.5153   28.7444  -75.2857 O.2       9 UNK        -0.5274 
     30 CA        -71.0374   26.4418  -74.9293 C.3       8 UNK         0.0270 
     31 CB        -71.5225   26.1549  -73.4975 C.3       8 UNK        -0.1976 
     32 N         -71.6242   25.4708  -75.8540 N.am      8 UNK        -0.4313 
     33 C         -70.9891   24.9311  -76.9039 C.2       8 UNK         0.5041 
     34 O         -69.8089   25.1530  -77.1782 O.2       8 UNK        -0.5577 
     35 CA        -71.7937   23.9698  -77.8014 C.3       7 UNK         0.0284 
     36 CB        -71.5489   22.5117  -77.3798 C.3       7 UNK        -0.1958 
     37 N         -73.2340   24.2373  -77.7928 N.am      7 UNK        -0.4454 
     38 C         -73.8134   25.2984  -78.3710 C.2       7 UNK         0.5089 
     39 O         -73.2062   26.1150  -79.0636 O.2       7 UNK        -0.5125 
     40 CA        -75.3180   25.5047  -78.1104 C.3       6 UNK         0.0408 
     41 CB        -76.1459   24.9901  -79.2974 C.3       6 UNK        -0.1791 
     42 N         -75.8265   24.9073  -76.8666 N.am      6 UNK        -0.4762 
     43 C         -75.3932   25.1992  -75.6307 C.2       6 UNK         0.5007 
     44 O         -74.4262   25.9367  -75.4298 O.2       6 UNK        -0.5032 
     45 CA        -76.1311   24.5855  -74.4166 C.3       5 UNK         0.0783 
     46 C46       -76.1399   25.5789  -73.2333 C.3       11 UNK        -0.0857 
     47 S47       -76.7946   24.8814  -71.6828 S.3       11 UNK        -0.2512 
     48 C48       -76.3037   26.1886  -70.5102 C.3       11 UNK         0.0225 
     49 N         -77.4893   24.1423  -74.7437 N.am      5 UNK        -0.4615 
     50 C         -77.8110   22.9611  -75.2818 C.2       4 UNK         0.5053 
     51 O         -76.9871   22.0979  -75.5819 O.2       4 UNK        -0.5105 
     52 CA        -79.2992   22.7318  -75.5776 C.3       4 UNK         0.0263 
     53 CB        -80.0437   22.2874  -74.3093 C.3       4 UNK        -0.1981 
     54 N         -79.9196   23.9373  -76.1358 N.am      4 UNK        -0.4224 
     55 C         -79.7676   24.3300  -77.4100 C.2       3 UNK         0.4895 
     56 O         -79.1816   23.6620  -78.2618 O.2       3 UNK        -0.5091 
     57 CA        -80.3412   25.7013  -77.8057 C.3       3 UNK         0.0250 
     58 CB        -81.7871   25.5627  -78.3076 C.3       3 UNK        -0.1996 
     59 N         -80.2866   26.6715  -76.7098 N.am      3 UNK        -0.4254 
     60 C         -79.1656   27.2913  -76.3083 C.2       2 UNK         0.5004 
     61 O         -78.0817   27.1704  -76.8752 O.2       2 UNK        -0.5226 
     62 CA        -79.2524   28.1955  -75.0638 C.3       2 UNK         0.0269 
     63 CB        -79.3408   29.6710  -75.4838 C.3       2 UNK        -0.1926 
     64 N         -80.3747   27.8898  -74.1731 N.am      2 UNK        -0.4687 
     65 C         -80.5555   26.7298  -73.5290 C.2       1 UNK         0.5165 
     66 O         -79.7819   25.7716  -73.6181 O.2       1 UNK        -0.5079 
     67 H67       -84.5865   23.3747  -73.5627 H         1 UNK         0.0900 
     68 H68       -83.3422   22.7544  -74.6470 H         1 UNK         0.0900 
     69 H69       -83.0619   22.7673  -72.9043 H         1 UNK         0.0900 
     70 H70       -82.3956   24.7406  -71.8872 H         1 UNK         0.2959 
     71 H71       -82.5922   27.2718  -73.1454 H         1 UNK         0.1079 
     72 H72       -80.7294   26.6698  -70.8016 H         1 UNK         0.0837 
     73 H73       -82.4544   26.7212  -70.5968 H         1 UNK         0.0837 
     74 H74       -80.3342   30.2925  -69.6392 H         1 UNK         0.0685 
     75 H75       -80.4345   28.6622  -69.0273 H         1 UNK         0.0685 
     76 H76       -78.6971   27.0665  -69.5589 H         1 UNK         0.1434 
     77 H77       -75.4813   28.2090  -72.1463 H         1 UNK         0.1329 
     78 H78       -78.8950   30.7663  -71.7234 H         1 UNK         0.1335 
     79 H79       -75.8852   30.0093  -73.7634 H         1 UNK         0.0680 
     80 H80       -77.3226   30.9802  -73.6625 H         1 UNK         0.0680 
     81 H81       -73.7681   31.6580  -70.8223 H         1 UNK         0.1032 
     82 H82       -74.2352   30.0989  -71.4193 H         1 UNK         0.1032 
     83 H83       -72.9062   32.2200  -73.1769 H         1 UNK         0.0461 
     84 H84       -70.7611   29.8189  -73.6417 H         1 UNK         0.3453 
     85 H85       -69.6812   30.1717  -72.3161 H         1 UNK         0.3453 
     86 H86       -73.3537   29.3127  -73.6485 H         1 UNK         0.2984 
     87 H87       -74.3084   29.2198  -76.2483 H         1 UNK         0.0554 
     88 H88       -73.2281   30.5668  -78.0224 H         1 UNK         0.0847 
     89 H89       -72.9085   28.8613  -78.2862 H         1 UNK         0.0847 
     90 H90       -71.6524   29.9006  -77.6159 H         1 UNK         0.0847 
     91 H91       -73.3131   27.3306  -75.6659 H         1 UNK         0.3141 
     92 H92       -69.9492   26.3490  -74.9370 H         1 UNK         0.0743 
     93 H93       -72.6065   26.2289  -73.4075 H         1 UNK         0.0784 
     94 H94       -71.2292   25.1556  -73.1755 H         1 UNK         0.0784 
     95 H95       -71.0877   26.8628  -72.7902 H         1 UNK         0.0784 
     96 H96       -72.6159   25.2890  -75.7411 H         1 UNK         0.3213 
     97 H97       -71.4299   24.0951  -78.8238 H         1 UNK         0.0855 
     98 H98       -71.9024   22.3179  -76.3662 H         1 UNK         0.0814 
     99 H99       -70.4845   22.2731  -77.4041 H         1 UNK         0.0814 
    100 H100      -72.0502   21.8141  -78.0510 H         1 UNK         0.0814 
    101 H101      -73.8191   23.6089  -77.2614 H         1 UNK         0.3105 
    102 H102      -75.4774   26.5823  -78.0333 H         1 UNK         0.0547 
    103 H103      -75.7777   25.3970  -80.2403 H         1 UNK         0.0837 
    104 H104      -76.1130   23.9027  -79.3740 H         1 UNK         0.0837 
    105 H105      -77.1895   25.2909  -79.2067 H         1 UNK         0.0837 
    106 H106      -76.6253   24.2954  -76.9546 H         1 UNK         0.3020 
    107 H107      -75.5432   23.7156  -74.1151 H         1 UNK         0.1245 
    108 H108      -75.1316   25.9372  -73.0186 H         1 UNK         0.0781 
    109 H109      -76.7365   26.4519  -73.5002 H         1 UNK         0.0781 
    110 H110      -75.2213   26.3228  -70.5401 H         1 UNK         0.0836 
    111 H111      -76.5409   25.8625  -69.4964 H         1 UNK         0.0836 
    112 H112      -78.2380   24.7753  -74.4791 H         1 UNK         0.3022 
    113 H113      -79.3730   21.9241  -76.3093 H         1 UNK         0.0747 
    114 H114      -81.0653   21.9902  -74.5402 H         1 UNK         0.0793 
    115 H115      -79.5563   21.4244  -73.8535 H         1 UNK         0.0793 
    116 H116      -80.0786   23.0757  -73.5564 H         1 UNK         0.0793 
    117 H117      -80.3843   24.5583  -75.4857 H         1 UNK         0.3047 
    118 H118      -79.7361   26.0838  -78.6309 H         1 UNK         0.0822 
    119 H119      -82.1875   26.5220  -78.6359 H         1 UNK         0.0807 
    120 H120      -82.4497   25.1678  -77.5373 H         1 UNK         0.0807 
    121 H121      -81.8387   24.8825  -79.1589 H         1 UNK         0.0807 
    122 H122      -81.1387   26.8204  -76.1865 H         1 UNK         0.2946 
    123 H123      -78.3325   28.0520  -74.4928 H         1 UNK         0.1144 
    124 H124      -79.3921   30.3302  -74.6175 H         1 UNK         0.0793 
    125 H125      -80.2201   29.8625  -76.1002 H         1 UNK         0.0793 
    126 H126      -78.4648   29.9636  -76.0646 H         1 UNK         0.0793 
    127 H127      -81.0486   28.6291  -74.0322 H         1 UNK         0.2896 
@<TRIPOS>BOND
     1    1    2 1    
     2    1   67 1    
     3    1   68 1    
     4    1   69 1    
     5    2    3 2    
     6    2    4 am   BACKBONE|DICT|INTERRES
     7    4    5 1    
     8    4   70 1    
     9    5    6 1    
    10    5   65 1    
    11    5   71 1    
    12    6    7 1    
    13    6   72 1    
    14    6   73 1    
    15    7    8 1    
    16    8    9 1    
    17    8   74 1    
    18    8   75 1    
    19    9   10 ar   
    20    9   14 ar   
    21   10   11 ar   
    22   10   76 1    
    23   11   12 ar   
    24   11   48 1    
    25   12   13 ar   
    26   12   77 1    
    27   13   14 ar   
    28   13   15 1    
    29   14   78 1    
    30   15   16 1    
    31   15   79 1    
    32   15   80 1    
    33   16   17 1    
    34   17   18 1    
    35   17   81 1    
    36   17   82 1    
    37   18   19 1    
    38   18   22 1    
    39   18   83 1    
    40   19   20 am   BACKBONE|DICT|INTERRES
    41   19   21 2    
    42   20   84 1    
    43   20   85 1    
    44   22   23 am   BACKBONE|DICT|INTERRES
    45   22   86 1    
    46   23   24 2    
    47   23   25 1    
    48   25   26 1    
    49   25   27 1    
    50   25   87 1    
    51   26   88 1    
    52   26   89 1    
    53   26   90 1    
    54   27   28 am   BACKBONE|DICT|INTERRES
    55   27   91 1    
    56   28   29 2    
    57   28   30 1    
    58   30   31 1    
    59   30   32 1    
    60   30   92 1    
    61   31   93 1    
    62   31   94 1    
    63   31   95 1    
    64   32   33 am   BACKBONE|DICT|INTERRES
    65   32   96 1    
    66   33   34 2    
    67   33   35 1    
    68   35   36 1    
    69   35   37 1    
    70   35   97 1    
    71   36   98 1    
    72   36   99 1    
    73   36  100 1    
    74   37   38 am   BACKBONE|DICT|INTERRES
    75   37  101 1    
    76   38   39 2    
    77   38   40 1    
    78   40   41 1    
    79   40   42 1    
    80   40  102 1    
    81   41  103 1    
    82   41  104 1    
    83   41  105 1    
    84   42   43 am   BACKBONE|DICT|INTERRES
    85   42  106 1    
    86   43   44 2    
    87   43   45 1    
    88   45   46 1    
    89   45   49 1    
    90   45  107 1    
    91   46   47 1    
    92   46  108 1    
    93   46  109 1    
    94   47   48 1    
    95   48  110 1    
    96   48  111 1    
    97   49   50 am   BACKBONE|DICT|INTERRES
    98   49  112 1    
    99   50   51 2    
   100   50   52 1    
   101   52   53 1    
   102   52   54 1    
   103   52  113 1    
   104   53  114 1    
   105   53  115 1    
   106   53  116 1    
   107   54   55 am   BACKBONE|DICT|INTERRES
   108   54  117 1    
   109   55   56 2    
   110   55   57 1    
   111   57   58 1    
   112   57   59 1    
   113   57  118 1    
   114   58  119 1    
   115   58  120 1    
   116   58  121 1    
   117   59   60 am   BACKBONE|DICT|INTERRES
   118   59  122 1    
   119   60   61 2    
   120   60   62 1    
   121   62   63 1    
   122   62   64 1    
   123   62  123 1    
   124   63  124 1    
   125   63  125 1    
   126   63  126 1    
   127   64   65 am   BACKBONE|DICT|INTERRES
   128   64  127 1    
   129   65   66 2    
@<TRIPOS>SUBSTRUCTURE
     1 UNK         1 GROUP             0       ****    0 ROOT    
