@<TRIPOS>MOLECULE
3R135
127   129    1
SMALL
USER_CHARGES


@<TRIPOS>ATOM
      1 CA        -81.9923   25.1490  -71.8242 C.3       0 UNK        -0.1998 
      2 C         -81.4899   26.3560  -72.5993 C.2       0 UNK         0.4909 
      3 O         -80.5115   26.2393  -73.3389 O.2       0 UNK        -0.5240 
      4 N         -82.1697   27.5047  -72.4511 N.am      1 UNK        -0.4739 
      5 CA        -81.8303   28.8340  -72.9996 C.3       1 UNK         0.0864 
      6 C6        -80.5072   29.3977  -72.4117 C.3       11 UNK        -0.0881 
      7 S7        -80.5908   29.6808  -70.6089 S.3       11 UNK        -0.2682 
      8 C8        -79.6073   28.2950  -69.9332 C.3       11 UNK         0.0289 
      9 C9        -78.1788   28.1815  -70.4679 C.ar      11 UNK        -0.0687 
     10 C10       -77.5880   26.9169  -70.5551 C.ar      11 UNK        -0.0823 
     11 C11       -76.2879   26.7663  -71.0469 C.ar      11 UNK        -0.0830 
     12 C12       -75.5768   27.8917  -71.4698 C.ar      11 UNK        -0.1021 
     13 C13       -76.1583   29.1609  -71.4024 C.ar      11 UNK        -0.0753 
     14 C14       -77.4445   29.3028  -70.8742 C.ar      11 UNK        -0.0933 
     15 C15       -75.4111   30.3777  -71.9282 C.3       11 UNK         0.0166 
     16 S16       -76.1952   31.0617  -73.4265 S.3       11 UNK        -0.2615 
     17 C17       -76.0173   29.6896  -74.6232 C.3       11 UNK        -0.0865 
     18 CA        -74.9574   29.8795  -75.7485 C.3       10 UNK         0.0862 
     19 C         -75.2895   30.9942  -76.7876 C.2       10 UNK         0.5551 
     20 N         -74.3051   31.5756  -77.4627 N.am      10 UNK        -0.7319 
     21 O         -76.4545   31.3018  -77.0273 O.2       10 UNK        -0.5018 
     22 N         -73.5652   29.8094  -75.2684 N.am      10 UNK        -0.4509 
     23 C         -72.8352   30.7803  -74.6940 C.2       10 UNK         0.4899 
     24 O         -73.2384   31.9215  -74.4751 O.2       10 UNK        -0.4839 
     25 CA        -71.3867   30.4330  -74.2975 C.3       9 UNK         0.0222 
     26 CB        -71.3105   30.1128  -72.7952 C.3       9 UNK        -0.1966 
     27 N         -70.8175   29.3155  -75.0531 N.am      9 UNK        -0.4218 
     28 C         -70.5792   29.3088  -76.3728 C.2       9 UNK         0.5020 
     29 O         -70.7175   30.2933  -77.1001 O.2       9 UNK        -0.5274 
     30 CA        -70.1497   27.9650  -76.9928 C.3       8 UNK         0.0270 
     31 CB        -68.6241   27.9222  -77.1791 C.3       8 UNK        -0.1976 
     32 N         -70.5796   26.7848  -76.2287 N.am      8 UNK        -0.4313 
     33 C         -71.8538   26.4466  -75.9865 C.2       8 UNK         0.5041 
     34 O         -72.8244   27.1164  -76.3491 O.2       8 UNK        -0.5577 
     35 CA        -72.0793   25.1953  -75.1268 C.3       7 UNK         0.0284 
     36 CB        -72.3145   25.5962  -73.6607 C.3       7 UNK        -0.1958 
     37 N         -73.2317   24.4355  -75.6078 N.am      7 UNK        -0.4454 
     38 C         -73.2341   23.6666  -76.7057 C.2       7 UNK         0.5089 
     39 O         -72.2365   23.4827  -77.4061 O.2       7 UNK        -0.5125 
     40 CA        -74.5714   22.9945  -77.0863 C.3       6 UNK         0.0408 
     41 CB        -74.3791   21.6842  -77.8787 C.3       6 UNK        -0.1791 
     42 N         -75.4761   22.7949  -75.9463 N.am      6 UNK        -0.4762 
     43 C         -75.2643   22.0350  -74.8575 C.2       6 UNK         0.5007 
     44 O         -74.2735   21.3193  -74.7065 O.2       6 UNK        -0.5032 
     45 CA        -76.3055   22.1106  -73.7180 C.3       5 UNK         0.0783 
     46 C46       -75.7531   22.9347  -72.5257 C.3       11 UNK        -0.0857 
     47 S47       -75.7735   24.7397  -72.8312 S.3       11 UNK        -0.2512 
     48 C48       -75.6611   25.3851  -71.1363 C.3       11 UNK         0.0225 
     49 N         -77.6007   22.6395  -74.1483 N.am      5 UNK        -0.4615 
     50 C         -78.4904   22.0350  -74.9408 C.2       4 UNK         0.5053 
     51 O         -78.3869   20.8720  -75.3298 O.2       4 UNK        -0.5105 
     52 CA        -79.6861   22.8943  -75.3932 C.3       4 UNK         0.0263 
     53 CB        -80.9087   22.6240  -74.5029 C.3       4 UNK        -0.1981 
     54 N         -79.4086   24.3379  -75.4021 N.am      4 UNK        -0.4224 
     55 C         -78.5028   24.9479  -76.1835 C.2       3 UNK         0.4895 
     56 O         -77.7600   24.3500  -76.9625 O.2       3 UNK        -0.5091 
     57 CA        -78.4166   26.4767  -76.0511 C.3       3 UNK         0.0250 
     58 CB        -77.4978   27.1385  -77.1017 C.3       3 UNK        -0.1996 
     59 N         -79.7581   27.0667  -76.0299 N.am      3 UNK        -0.4254 
     60 C         -80.6494   27.1622  -77.0308 C.2       2 UNK         0.5004 
     61 O         -80.4021   26.8763  -78.2026 O.2       2 UNK        -0.5226 
     62 CA        -82.0803   27.6206  -76.6639 C.3       2 UNK         0.0269 
     63 CB        -83.1215   26.5876  -77.1306 C.3       2 UNK        -0.1926 
     64 N         -82.2624   27.8422  -75.2254 N.am      2 UNK        -0.4687 
     65 C         -81.8263   28.9119  -74.5474 C.2       1 UNK         0.5165 
     66 O         -81.4005   29.9233  -75.1067 O.2       1 UNK        -0.5079 
     67 H67       -82.6980   25.4336  -71.0441 H         1 UNK         0.0900 
     68 H68       -82.4890   24.4503  -72.4963 H         1 UNK         0.0900 
     69 H69       -81.1567   24.6344  -71.3504 H         1 UNK         0.0900 
     70 H70       -82.9826   27.5030  -71.8500 H         1 UNK         0.2959 
     71 H71       -82.6375   29.5007  -72.6915 H         1 UNK         0.1079 
     72 H72       -80.2633   30.3648  -72.8554 H         1 UNK         0.0837 
     73 H73       -79.6697   28.7442  -72.6596 H         1 UNK         0.0837 
     74 H74       -80.1518   27.3699  -70.1251 H         1 UNK         0.0685 
     75 H75       -79.5605   28.4032  -68.8491 H         1 UNK         0.0685 
     76 H76       -78.1450   26.0435  -70.2439 H         1 UNK         0.1434 
     77 H77       -74.5804   27.7737  -71.8734 H         1 UNK         0.1329 
     78 H78       -77.8824   30.2895  -70.8182 H         1 UNK         0.1335 
     79 H79       -75.3899   31.1484  -71.1566 H         1 UNK         0.0680 
     80 H80       -74.3713   30.1329  -72.1473 H         1 UNK         0.0680 
     81 H81       -77.0005   29.5289  -75.0678 H         1 UNK         0.1032 
     82 H82       -75.8031   28.7626  -74.0926 H         1 UNK         0.1032 
     83 H83       -75.0386   28.9768  -76.3550 H         1 UNK         0.0461 
     84 H84       -74.5229   32.2836  -78.1457 H         1 UNK         0.3453 
     85 H85       -73.3457   31.3231  -77.2805 H         1 UNK         0.3453 
     86 H86       -73.1127   28.9219  -75.4633 H         1 UNK         0.2984 
     87 H87       -70.7720   31.3142  -74.4927 H         1 UNK         0.0554 
     88 H88       -71.7050   30.9380  -72.2003 H         1 UNK         0.0847 
     89 H89       -70.2816   29.9494  -72.4740 H         1 UNK         0.0847 
     90 H90       -71.8889   29.2236  -72.5406 H         1 UNK         0.0847 
     91 H91       -70.6567   28.4592  -74.5443 H         1 UNK         0.3141 
     92 H92       -70.6166   27.9036  -77.9782 H         1 UNK         0.0743 
     93 H93       -68.0986   27.9530  -76.2237 H         1 UNK         0.0784 
     94 H94       -68.3128   27.0203  -77.7066 H         1 UNK         0.0784 
     95 H95       -68.2789   28.7734  -77.7679 H         1 UNK         0.0784 
     96 H96       -69.8450   26.1828  -75.8833 H         1 UNK         0.3213 
     97 H97       -71.1961   24.5545  -75.1781 H         1 UNK         0.0855 
     98 H98       -73.1682   26.2678  -73.5577 H         1 UNK         0.0814 
     99 H99       -71.4448   26.1100  -73.2495 H         1 UNK         0.0814 
    100 H100      -72.4989   24.7229  -73.0346 H         1 UNK         0.0814 
    101 H101      -74.1014   24.5622  -75.1109 H         1 UNK         0.3105 
    102 H102      -75.0791   23.7006  -77.7448 H         1 UNK         0.0547 
    103 H103      -75.3371   21.2346  -78.1394 H         1 UNK         0.0837 
    104 H104      -73.8042   20.9490  -77.3153 H         1 UNK         0.0837 
    105 H105      -73.8444   21.8664  -78.8115 H         1 UNK         0.0837 
    106 H106      -76.3412   23.3244  -76.0022 H         1 UNK         0.3020 
    107 H107      -76.4621   21.0835  -73.3802 H         1 UNK         0.1245 
    108 H108      -74.7401   22.6261  -72.2588 H         1 UNK         0.0781 
    109 H109      -76.3653   22.7258  -71.6472 H         1 UNK         0.0781 
    110 H110      -74.6137   25.4250  -70.8336 H         1 UNK         0.0836 
    111 H111      -76.1566   24.7074  -70.4397 H         1 UNK         0.0836 
    112 H112      -77.7824   23.5943  -73.8733 H         1 UNK         0.3022 
    113 H113      -79.9311   22.5993  -76.4156 H         1 UNK         0.0747 
    114 H114      -81.7809   23.1821  -74.8438 H         1 UNK         0.0793 
    115 H115      -81.1756   21.5663  -74.5172 H         1 UNK         0.0793 
    116 H116      -80.7166   22.8973  -73.4648 H         1 UNK         0.0793 
    117 H117      -79.9363   24.9120  -74.7507 H         1 UNK         0.3047 
    118 H118      -77.9849   26.6750  -75.0683 H         1 UNK         0.0822 
    119 H119      -77.5272   28.2253  -77.0324 H         1 UNK         0.0807 
    120 H120      -77.7774   26.8634  -78.1190 H         1 UNK         0.0807 
    121 H121      -76.4620   26.8276  -76.9590 H         1 UNK         0.0807 
    122 H122      -80.1091   27.2542  -75.0972 H         1 UNK         0.2946 
    123 H123      -82.2622   28.5587  -77.1933 H         1 UNK         0.1144 
    124 H124      -84.1361   26.9159  -76.9040 H         1 UNK         0.0793 
    125 H125      -82.9671   25.6173  -76.6567 H         1 UNK         0.0793 
    126 H126      -83.0679   26.4352  -78.2095 H         1 UNK         0.0793 
    127 H127      -82.5942   27.0558  -74.6851 H         1 UNK         0.2896 
@<TRIPOS>BOND
     1    1    2 1    
     2    1   67 1    
     3    1   68 1    
     4    1   69 1    
     5    2    3 2    
     6    2    4 am   BACKBONE|DICT|INTERRES
     7    4    5 1    
     8    4   70 1    
     9    5    6 1    
    10    5   65 1    
    11    5   71 1    
    12    6    7 1    
    13    6   72 1    
    14    6   73 1    
    15    7    8 1    
    16    8    9 1    
    17    8   74 1    
    18    8   75 1    
    19    9   10 ar   
    20    9   14 ar   
    21   10   11 ar   
    22   10   76 1    
    23   11   12 ar   
    24   11   48 1    
    25   12   13 ar   
    26   12   77 1    
    27   13   14 ar   
    28   13   15 1    
    29   14   78 1    
    30   15   16 1    
    31   15   79 1    
    32   15   80 1    
    33   16   17 1    
    34   17   18 1    
    35   17   81 1    
    36   17   82 1    
    37   18   19 1    
    38   18   22 1    
    39   18   83 1    
    40   19   20 am   BACKBONE|DICT|INTERRES
    41   19   21 2    
    42   20   84 1    
    43   20   85 1    
    44   22   23 am   BACKBONE|DICT|INTERRES
    45   22   86 1    
    46   23   24 2    
    47   23   25 1    
    48   25   26 1    
    49   25   27 1    
    50   25   87 1    
    51   26   88 1    
    52   26   89 1    
    53   26   90 1    
    54   27   28 am   BACKBONE|DICT|INTERRES
    55   27   91 1    
    56   28   29 2    
    57   28   30 1    
    58   30   31 1    
    59   30   32 1    
    60   30   92 1    
    61   31   93 1    
    62   31   94 1    
    63   31   95 1    
    64   32   33 am   BACKBONE|DICT|INTERRES
    65   32   96 1    
    66   33   34 2    
    67   33   35 1    
    68   35   36 1    
    69   35   37 1    
    70   35   97 1    
    71   36   98 1    
    72   36   99 1    
    73   36  100 1    
    74   37   38 am   BACKBONE|DICT|INTERRES
    75   37  101 1    
    76   38   39 2    
    77   38   40 1    
    78   40   41 1    
    79   40   42 1    
    80   40  102 1    
    81   41  103 1    
    82   41  104 1    
    83   41  105 1    
    84   42   43 am   BACKBONE|DICT|INTERRES
    85   42  106 1    
    86   43   44 2    
    87   43   45 1    
    88   45   46 1    
    89   45   49 1    
    90   45  107 1    
    91   46   47 1    
    92   46  108 1    
    93   46  109 1    
    94   47   48 1    
    95   48  110 1    
    96   48  111 1    
    97   49   50 am   BACKBONE|DICT|INTERRES
    98   49  112 1    
    99   50   51 2    
   100   50   52 1    
   101   52   53 1    
   102   52   54 1    
   103   52  113 1    
   104   53  114 1    
   105   53  115 1    
   106   53  116 1    
   107   54   55 am   BACKBONE|DICT|INTERRES
   108   54  117 1    
   109   55   56 2    
   110   55   57 1    
   111   57   58 1    
   112   57   59 1    
   113   57  118 1    
   114   58  119 1    
   115   58  120 1    
   116   58  121 1    
   117   59   60 am   BACKBONE|DICT|INTERRES
   118   59  122 1    
   119   60   61 2    
   120   60   62 1    
   121   62   63 1    
   122   62   64 1    
   123   62  123 1    
   124   63  124 1    
   125   63  125 1    
   126   63  126 1    
   127   64   65 am   BACKBONE|DICT|INTERRES
   128   64  127 1    
   129   65   66 2    
@<TRIPOS>SUBSTRUCTURE
     1 UNK         1 GROUP             0       ****    0 ROOT    
