@<TRIPOS>MOLECULE
3R135
127   129    1
SMALL
USER_CHARGES


@<TRIPOS>ATOM
      1 CA        -86.2988   28.2907  -74.1697 C.3       0 UNK        -0.1998 
      2 C         -84.9277   28.2589  -74.8285 C.2       0 UNK         0.4909 
      3 O         -84.8245   28.4675  -76.0381 O.2       0 UNK        -0.5240 
      4 N         -83.8741   28.0102  -74.0412 N.am      1 UNK        -0.4739 
      5 CA        -82.4892   27.8927  -74.5096 C.3       1 UNK         0.0864 
      6 C6        -81.4813   27.9220  -73.3350 C.3       11 UNK        -0.0881 
      7 S7        -81.4632   29.5345  -72.4828 S.3       11 UNK        -0.2682 
      8 C8        -79.8631   30.2184  -73.0384 C.3       11 UNK         0.0289 
      9 C9        -78.6650   29.8413  -72.1639 C.ar      11 UNK        -0.0687 
     10 C10       -78.5620   28.5994  -71.5198 C.ar      11 UNK        -0.0823 
     11 C11       -77.4619   28.3045  -70.7084 C.ar      11 UNK        -0.0830 
     12 C12       -76.4558   29.2580  -70.5427 C.ar      11 UNK        -0.1021 
     13 C13       -76.5225   30.4831  -71.2080 C.ar      11 UNK        -0.0753 
     14 C14       -77.6283   30.7689  -72.0128 C.ar      11 UNK        -0.0933 
     15 C15       -75.3979   31.4954  -71.0585 C.3       11 UNK         0.0166 
     16 S16       -74.1191   31.2575  -72.3304 S.3       11 UNK        -0.2615 
     17 C17       -73.3500   29.6953  -71.7763 C.3       11 UNK        -0.0865 
     18 CA        -71.9979   29.4221  -72.4836 C.3       10 UNK         0.0862 
     19 C         -71.2316   28.2229  -71.8501 C.2       10 UNK         0.5551 
     20 N         -70.6173   27.3339  -72.6230 N.am      10 UNK        -0.7319 
     21 O         -71.1732   28.1038  -70.6287 O.2       10 UNK        -0.5018 
     22 N         -72.1826   29.2809  -73.9347 N.am      10 UNK        -0.4509 
     23 C         -71.4122   29.8475  -74.8694 C.2       10 UNK         0.4899 
     24 O         -70.4818   30.6170  -74.6218 O.2       10 UNK        -0.4839 
     25 CA        -71.7321   29.4670  -76.3284 C.3       9 UNK         0.0222 
     26 CB        -70.6336   29.9047  -77.3204 C.3       9 UNK        -0.1966 
     27 N         -72.0375   28.0404  -76.4955 N.am      9 UNK        -0.4218 
     28 C         -71.2530   26.9969  -76.1728 C.2       9 UNK         0.5020 
     29 O         -70.1407   27.1175  -75.6577 O.2       9 UNK        -0.5274 
     30 CA        -71.7928   25.5744  -76.4240 C.3       8 UNK         0.0270 
     31 CB        -71.8127   24.7585  -75.1196 C.3       8 UNK        -0.1976 
     32 N         -73.1339   25.5664  -77.0083 N.am      8 UNK        -0.4313 
     33 C         -73.4117   25.7145  -78.3103 C.2       8 UNK         0.5041 
     34 O         -72.5554   25.7694  -79.1930 O.2       8 UNK        -0.5577 
     35 CA        -74.8971   25.8628  -78.6848 C.3       7 UNK         0.0284 
     36 CB        -75.4488   24.5338  -79.2255 C.3       7 UNK        -0.1958 
     37 N         -75.7264   26.3313  -77.5649 N.am      7 UNK        -0.4454 
     38 C         -75.6714   27.5769  -77.0628 C.2       7 UNK         0.5089 
     39 O         -74.9155   28.4479  -77.4923 O.2       7 UNK        -0.5125 
     40 CA        -76.5516   27.8831  -75.8400 C.3       6 UNK         0.0408 
     41 CB        -78.0125   28.0918  -76.2600 C.3       6 UNK        -0.1791 
     42 N         -76.4683   26.8254  -74.8318 N.am      6 UNK        -0.4762 
     43 C         -75.3837   26.6052  -74.0701 C.2       6 UNK         0.5007 
     44 O         -74.3574   27.2850  -74.1259 O.2       6 UNK        -0.5032 
     45 CA        -75.4043   25.3376  -73.2071 C.3       5 UNK         0.0783 
     46 C46       -76.5179   25.3264  -72.1260 C.3       11 UNK        -0.0857 
     47 S47       -75.9301   25.9910  -70.5358 S.3       11 UNK        -0.2512 
     48 C48       -77.3635   26.9705  -69.9825 C.3       11 UNK         0.0225 
     49 N         -75.5211   24.2207  -74.1335 N.am      5 UNK        -0.4615 
     50 C         -74.9031   23.0429  -74.0555 C.2       4 UNK         0.5053 
     51 O         -74.1721   22.7142  -73.1209 O.2       4 UNK        -0.5105 
     52 CA        -75.1516   22.0814  -75.2388 C.3       4 UNK         0.0263 
     53 CB        -74.5152   20.6965  -75.0196 C.3       4 UNK        -0.1981 
     54 N         -76.5779   21.9092  -75.5448 N.am      4 UNK        -0.4224 
     55 C         -77.3806   22.8181  -76.1169 C.2       3 UNK         0.4895 
     56 O         -76.9815   23.9254  -76.4939 O.2       3 UNK        -0.5091 
     57 CA        -78.8624   22.4177  -76.2651 C.3       3 UNK         0.0250 
     58 CB        -79.4621   21.9250  -74.9287 C.3       3 UNK        -0.1996 
     59 N         -79.7058   23.4758  -76.8390 N.am      3 UNK        -0.4254 
     60 C         -79.9625   24.6894  -76.3268 C.2       2 UNK         0.5004 
     61 O         -79.4813   25.1115  -75.2696 O.2       2 UNK        -0.5226 
     62 CA        -80.8835   25.6030  -77.1660 C.3       2 UNK         0.0269 
     63 CB        -82.0016   24.8392  -77.9137 C.3       2 UNK        -0.1926 
     64 N         -81.4361   26.7051  -76.3666 N.am      2 UNK        -0.4687 
     65 C         -82.2839   26.6053  -75.3313 C.2       1 UNK         0.5165 
     66 O         -82.8430   25.5619  -74.9811 O.2       1 UNK        -0.5079 
     67 H67       -86.2402   28.1047  -73.0974 H         1 UNK         0.0900 
     68 H68       -86.9442   27.5316  -74.6107 H         1 UNK         0.0900 
     69 H69       -86.7648   29.2642  -74.3197 H         1 UNK         0.0900 
     70 H70       -84.0165   27.8385  -73.0564 H         1 UNK         0.2959 
     71 H71       -82.2877   28.7464  -75.1611 H         1 UNK         0.1079 
     72 H72       -80.4734   27.6933  -73.6878 H         1 UNK         0.0837 
     73 H73       -81.7214   27.1471  -72.6043 H         1 UNK         0.0837 
     74 H74       -79.9713   31.3041  -73.0502 H         1 UNK         0.0685 
     75 H75       -79.6688   29.9274  -74.0705 H         1 UNK         0.0685 
     76 H76       -79.3427   27.8621  -71.6297 H         1 UNK         0.1434 
     77 H77       -75.6078   29.0342  -69.9100 H         1 UNK         0.1329 
     78 H78       -77.6806   31.7216  -72.5221 H         1 UNK         0.1335 
     79 H79       -75.7960   32.5076  -71.1449 H         1 UNK         0.0680 
     80 H80       -74.9502   31.4286  -70.0657 H         1 UNK         0.0680 
     81 H81       -73.2115   29.7531  -70.6952 H         1 UNK         0.1032 
     82 H82       -74.0431   28.8719  -71.9556 H         1 UNK         0.1032 
     83 H83       -71.3624   30.2875  -72.2882 H         1 UNK         0.0461 
     84 H84       -70.5973   27.4412  -73.6294 H         1 UNK         0.3453 
     85 H85       -70.1192   26.5728  -72.1906 H         1 UNK         0.3453 
     86 H86       -72.9166   28.6360  -74.2136 H         1 UNK         0.2984 
     87 H87       -72.6447   30.0053  -76.5882 H         1 UNK         0.0554 
     88 H88       -70.8998   29.6475  -78.3456 H         1 UNK         0.0847 
     89 H89       -69.6750   29.4362  -77.0949 H         1 UNK         0.0847 
     90 H90       -70.4836   30.9845  -77.2874 H         1 UNK         0.0847 
     91 H91       -72.9539   27.8499  -76.8839 H         1 UNK         0.3141 
     92 H92       -71.1026   25.0874  -77.1161 H         1 UNK         0.0743 
     93 H93       -70.8135   24.6846  -74.6884 H         1 UNK         0.0784 
     94 H94       -72.4553   25.2137  -74.3658 H         1 UNK         0.0784 
     95 H95       -72.1598   23.7400  -75.2927 H         1 UNK         0.0784 
     96 H96       -73.9085   25.5538  -76.3623 H         1 UNK         0.3213 
     97 H97       -74.9618   26.6058  -79.4830 H         1 UNK         0.0855 
     98 H98       -74.9306   24.2442  -80.1405 H         1 UNK         0.0814 
     99 H99       -75.3185   23.7198  -78.5120 H         1 UNK         0.0814 
    100 H100      -76.5102   24.6074  -79.4630 H         1 UNK         0.0814 
    101 H101      -76.3522   25.6453  -77.1497 H         1 UNK         0.3105 
    102 H102      -76.1959   28.8112  -75.3861 H         1 UNK         0.0547 
    103 H103      -78.6547   28.2523  -75.3954 H         1 UNK         0.0837 
    104 H104      -78.1095   28.9636  -76.9083 H         1 UNK         0.0837 
    105 H105      -78.3970   27.2337  -76.8089 H         1 UNK         0.0837 
    106 H106      -77.2713   26.2133  -74.7522 H         1 UNK         0.3020 
    107 H107      -74.4290   25.2688  -72.7181 H         1 UNK         0.1245 
    108 H108      -76.8366   24.3017  -71.9277 H         1 UNK         0.0781 
    109 H109      -77.4176   25.8506  -72.4536 H         1 UNK         0.0781 
    110 H110      -77.2644   27.1605  -68.9128 H         1 UNK         0.0836 
    111 H111      -78.2754   26.3834  -70.1031 H         1 UNK         0.0836 
    112 H112      -76.1066   24.3711  -74.9517 H         1 UNK         0.3022 
    113 H113      -74.6704   22.5290  -76.1112 H         1 UNK         0.0747 
    114 H114      -74.6533   20.0534  -75.8890 H         1 UNK         0.0793 
    115 H115      -73.4405   20.7813  -74.8519 H         1 UNK         0.0793 
    116 H116      -74.9417   20.1887  -74.1536 H         1 UNK         0.0793 
    117 H117      -76.9880   21.0366  -75.2447 H         1 UNK         0.3047 
    118 H118      -78.8905   21.5907  -76.9762 H         1 UNK         0.0822 
    119 H119      -78.9857   21.0061  -74.5863 H         1 UNK         0.0807 
    120 H120      -80.5259   21.7092  -75.0294 H         1 UNK         0.0807 
    121 H121      -79.3485   22.6656  -74.1358 H         1 UNK         0.0807 
    122 H122      -80.1180   23.2533  -77.7338 H         1 UNK         0.2946 
    123 H123      -80.2438   26.0656  -77.9192 H         1 UNK         0.1144 
    124 H124      -81.5941   24.2027  -78.6996 H         1 UNK         0.0793 
    125 H125      -82.6949   25.5283  -78.3962 H         1 UNK         0.0793 
    126 H126      -82.5804   24.2023  -77.2437 H         1 UNK         0.0793 
    127 H127      -81.0287   27.6099  -76.5546 H         1 UNK         0.2896 
@<TRIPOS>BOND
     1    1    2 1    
     2    1   67 1    
     3    1   68 1    
     4    1   69 1    
     5    2    3 2    
     6    2    4 am   BACKBONE|DICT|INTERRES
     7    4    5 1    
     8    4   70 1    
     9    5    6 1    
    10    5   65 1    
    11    5   71 1    
    12    6    7 1    
    13    6   72 1    
    14    6   73 1    
    15    7    8 1    
    16    8    9 1    
    17    8   74 1    
    18    8   75 1    
    19    9   10 ar   
    20    9   14 ar   
    21   10   11 ar   
    22   10   76 1    
    23   11   12 ar   
    24   11   48 1    
    25   12   13 ar   
    26   12   77 1    
    27   13   14 ar   
    28   13   15 1    
    29   14   78 1    
    30   15   16 1    
    31   15   79 1    
    32   15   80 1    
    33   16   17 1    
    34   17   18 1    
    35   17   81 1    
    36   17   82 1    
    37   18   19 1    
    38   18   22 1    
    39   18   83 1    
    40   19   20 am   BACKBONE|DICT|INTERRES
    41   19   21 2    
    42   20   84 1    
    43   20   85 1    
    44   22   23 am   BACKBONE|DICT|INTERRES
    45   22   86 1    
    46   23   24 2    
    47   23   25 1    
    48   25   26 1    
    49   25   27 1    
    50   25   87 1    
    51   26   88 1    
    52   26   89 1    
    53   26   90 1    
    54   27   28 am   BACKBONE|DICT|INTERRES
    55   27   91 1    
    56   28   29 2    
    57   28   30 1    
    58   30   31 1    
    59   30   32 1    
    60   30   92 1    
    61   31   93 1    
    62   31   94 1    
    63   31   95 1    
    64   32   33 am   BACKBONE|DICT|INTERRES
    65   32   96 1    
    66   33   34 2    
    67   33   35 1    
    68   35   36 1    
    69   35   37 1    
    70   35   97 1    
    71   36   98 1    
    72   36   99 1    
    73   36  100 1    
    74   37   38 am   BACKBONE|DICT|INTERRES
    75   37  101 1    
    76   38   39 2    
    77   38   40 1    
    78   40   41 1    
    79   40   42 1    
    80   40  102 1    
    81   41  103 1    
    82   41  104 1    
    83   41  105 1    
    84   42   43 am   BACKBONE|DICT|INTERRES
    85   42  106 1    
    86   43   44 2    
    87   43   45 1    
    88   45   46 1    
    89   45   49 1    
    90   45  107 1    
    91   46   47 1    
    92   46  108 1    
    93   46  109 1    
    94   47   48 1    
    95   48  110 1    
    96   48  111 1    
    97   49   50 am   BACKBONE|DICT|INTERRES
    98   49  112 1    
    99   50   51 2    
   100   50   52 1    
   101   52   53 1    
   102   52   54 1    
   103   52  113 1    
   104   53  114 1    
   105   53  115 1    
   106   53  116 1    
   107   54   55 am   BACKBONE|DICT|INTERRES
   108   54  117 1    
   109   55   56 2    
   110   55   57 1    
   111   57   58 1    
   112   57   59 1    
   113   57  118 1    
   114   58  119 1    
   115   58  120 1    
   116   58  121 1    
   117   59   60 am   BACKBONE|DICT|INTERRES
   118   59  122 1    
   119   60   61 2    
   120   60   62 1    
   121   62   63 1    
   122   62   64 1    
   123   62  123 1    
   124   63  124 1    
   125   63  125 1    
   126   63  126 1    
   127   64   65 am   BACKBONE|DICT|INTERRES
   128   64  127 1    
   129   65   66 2    
@<TRIPOS>SUBSTRUCTURE
     1 UNK         1 GROUP             0       ****    0 ROOT    
