@<TRIPOS>MOLECULE
3R135
127   129    1
SMALL
USER_CHARGES


@<TRIPOS>ATOM
      1 CA        -77.6159   29.5428  -75.9999 C.3       0 UNK        -0.1998 
      2 C         -76.9146   28.6827  -74.9532 C.2       0 UNK         0.4909 
      3 O         -75.6926   28.5757  -74.9951 O.2       0 UNK        -0.5240 
      4 N         -77.6089   28.0563  -73.9946 N.am      1 UNK        -0.4739 
      5 CA        -79.0615   27.9128  -73.8245 C.3       1 UNK         0.0864 
      6 C6        -79.7507   29.1908  -73.2660 C.3       11 UNK        -0.0881 
      7 S7        -81.0399   28.7553  -72.0458 S.3       11 UNK        -0.2682 
      8 C8        -80.1907   29.0193  -70.4516 C.3       11 UNK         0.0289 
      9 C9        -78.8457   28.3062  -70.3637 C.ar      11 UNK        -0.0687 
     10 C10       -78.7779   26.9082  -70.3105 C.ar      11 UNK        -0.0823 
     11 C11       -77.5385   26.2594  -70.2567 C.ar      11 UNK        -0.0830 
     12 C12       -76.3673   27.0225  -70.2231 C.ar      11 UNK        -0.1021 
     13 C13       -76.4236   28.4181  -70.2507 C.ar      11 UNK        -0.0753 
     14 C14       -77.6641   29.0544  -70.3292 C.ar      11 UNK        -0.0933 
     15 C15       -75.1401   29.2298  -70.1703 C.3       11 UNK         0.0166 
     16 S16       -74.3883   29.4541  -71.8086 S.3       11 UNK        -0.2615 
     17 C17       -75.2039   30.9785  -72.4060 C.3       11 UNK        -0.0865 
     18 CA        -74.3566   31.7484  -73.4563 C.3       10 UNK         0.0862 
     19 C         -73.0733   32.3694  -72.8226 C.2       10 UNK         0.5551 
     20 N         -71.8690   31.9338  -73.1762 N.am      10 UNK        -0.7319 
     21 O         -73.1788   33.2742  -71.9979 O.2       10 UNK        -0.5018 
     22 N         -74.1401   30.9331  -74.6602 N.am      10 UNK        -0.4509 
     23 C         -73.6323   31.3569  -75.8234 C.2       10 UNK         0.4899 
     24 O         -73.3919   32.5394  -76.0727 O.2       10 UNK        -0.4839 
     25 CA        -73.3333   30.2676  -76.8774 C.3       9 UNK         0.0222 
     26 CB        -72.3325   30.7404  -77.9518 C.3       9 UNK        -0.1966 
     27 N         -72.8903   28.9880  -76.3032 N.am      9 UNK        -0.4218 
     28 C         -71.8658   28.7806  -75.4585 C.2       9 UNK         0.5020 
     29 O         -71.1342   29.6772  -75.0339 O.2       9 UNK        -0.5274 
     30 CA        -71.6160   27.3374  -74.9818 C.3       8 UNK         0.0270 
     31 CB        -72.1949   27.1332  -73.5733 C.3       8 UNK        -0.1976 
     32 N         -72.1726   26.3227  -75.8798 N.am      8 UNK        -0.4313 
     33 C         -71.6300   25.9705  -77.0552 C.2       8 UNK         0.5041 
     34 O         -70.5619   26.4205  -77.4722 O.2       8 UNK        -0.5577 
     35 CA        -72.3991   24.9544  -77.9256 C.3       7 UNK         0.0284 
     36 CB        -71.8228   23.5418  -77.7373 C.3       7 UNK        -0.1958 
     37 N         -73.8425   24.9193  -77.6732 N.am      7 UNK        -0.4454 
     38 C         -74.6785   25.9528  -77.8391 C.2       7 UNK         0.5089 
     39 O         -74.3355   27.0391  -78.3063 O.2       7 UNK        -0.5125 
     40 CA        -76.1321   25.7697  -77.3705 C.3       6 UNK         0.0408 
     41 CB        -77.0312   25.4066  -78.5620 C.3       6 UNK        -0.1791 
     42 N         -76.3670   24.8132  -76.2776 N.am      6 UNK        -0.4762 
     43 C         -75.7072   24.7256  -75.1077 C.2       6 UNK         0.5007 
     44 O         -74.6658   25.3304  -74.8568 O.2       6 UNK        -0.5032 
     45 CA        -76.3299   23.8427  -74.0020 C.3       5 UNK         0.0783 
     46 C46       -77.1289   24.7725  -73.0568 C.3       11 UNK        -0.0857 
     47 S47       -78.0719   23.9364  -71.7369 S.3       11 UNK        -0.2512 
     48 C48       -77.4488   24.7363  -70.2192 C.3       11 UNK         0.0225 
     49 N         -77.1758   22.7662  -74.5205 N.am      5 UNK        -0.4615 
     50 C         -76.8252   21.7864  -75.3634 C.2       4 UNK         0.5053 
     51 O         -75.6718   21.5937  -75.7478 O.2       4 UNK        -0.5105 
     52 CA        -77.9662   20.8900  -75.8933 C.3       4 UNK         0.0263 
     53 CB        -77.9087   19.5029  -75.2331 C.3       4 UNK        -0.1981 
     54 N         -79.3135   21.4543  -75.7090 N.am      4 UNK        -0.4224 
     55 C         -79.7452   22.6133  -76.2294 C.2       3 UNK         0.4895 
     56 O         -79.0620   23.3056  -76.9879 O.2       3 UNK        -0.5091 
     57 CA        -81.1265   23.1175  -75.7777 C.3       3 UNK         0.0250 
     58 CB        -81.4370   22.7756  -74.3014 C.3       3 UNK        -0.1996 
     59 N         -81.1586   24.5641  -75.9775 N.am      3 UNK        -0.4254 
     60 C         -82.2306   25.3602  -75.9838 C.2       2 UNK         0.5004 
     61 O         -83.3835   24.9561  -75.8195 O.2       2 UNK        -0.5226 
     62 CA        -81.9539   26.8651  -76.1849 C.3       2 UNK         0.0269 
     63 CB        -83.2454   27.7014  -76.2599 C.3       2 UNK        -0.1926 
     64 N         -81.1006   27.4147  -75.1248 N.am      2 UNK        -0.4687 
     65 C         -79.7725   27.2648  -75.0380 C.2       1 UNK         0.5165 
     66 O         -79.1219   26.6140  -75.8578 O.2       1 UNK        -0.5079 
     67 H67       -77.9416   28.9283  -76.8386 H         1 UNK         0.0900 
     68 H68       -76.9285   30.2955  -76.3851 H         1 UNK         0.0900 
     69 H69       -78.4763   30.0686  -75.5932 H         1 UNK         0.0900 
     70 H70       -77.0656   27.5489  -73.3118 H         1 UNK         0.2959 
     71 H71       -79.1356   27.1449  -73.0551 H         1 UNK         0.1079 
     72 H72       -79.0221   29.8425  -72.7817 H         1 UNK         0.0837 
     73 H73       -80.1966   29.7970  -74.0561 H         1 UNK         0.0837 
     74 H74       -80.8363   28.6663  -69.6462 H         1 UNK         0.0685 
     75 H75       -80.0693   30.0923  -70.2949 H         1 UNK         0.0685 
     76 H76       -79.6886   26.3251  -70.3336 H         1 UNK         0.1434 
     77 H77       -75.4046   26.5320  -70.1710 H         1 UNK         0.1329 
     78 H78       -77.7079   30.1345  -70.3590 H         1 UNK         0.1335 
     79 H79       -75.3195   30.1960  -69.6966 H         1 UNK         0.0680 
     80 H80       -74.4238   28.7122  -69.5305 H         1 UNK         0.0680 
     81 H81       -75.4315   31.6297  -71.5602 H         1 UNK         0.1032 
     82 H82       -76.1696   30.7055  -72.8326 H         1 UNK         0.1032 
     83 H83       -74.9572   32.6002  -73.7804 H         1 UNK         0.0461 
     84 H84       -71.0518   32.3492  -72.7595 H         1 UNK         0.3453 
     85 H85       -71.7654   31.1829  -73.8509 H         1 UNK         0.3453 
     86 H86       -74.3743   29.9476  -74.5735 H         1 UNK         0.2984 
     87 H87       -74.2816   30.0593  -77.3747 H         1 UNK         0.0554 
     88 H88       -72.1596   29.9659  -78.6991 H         1 UNK         0.0847 
     89 H89       -71.3692   31.0062  -77.5147 H         1 UNK         0.0847 
     90 H90       -72.7059   31.6193  -78.4787 H         1 UNK         0.0847 
     91 H91       -73.4464   28.1855  -76.5736 H         1 UNK         0.3141 
     92 H92       -70.5348   27.1940  -74.9270 H         1 UNK         0.0743 
     93 H93       -73.2782   27.2612  -73.5647 H         1 UNK         0.0784 
     94 H94       -71.9726   26.1371  -73.1910 H         1 UNK         0.0784 
     95 H95       -71.7768   27.8540  -72.8692 H         1 UNK         0.0784 
     96 H96       -73.0609   25.9087  -75.5983 H         1 UNK         0.3213 
     97 H97       -72.2553   25.2487  -78.9674 H         1 UNK         0.0855 
     98 H98       -71.9637   23.1817  -76.7173 H         1 UNK         0.0814 
     99 H99       -70.7515   23.5267  -77.9434 H         1 UNK         0.0814 
    100 H100      -72.2909   22.8272  -78.4146 H         1 UNK         0.0814 
    101 H101      -74.2165   24.0770  -77.2589 H         1 UNK         0.3105 
    102 H102      -76.4584   26.7414  -77.0017 H         1 UNK         0.0547 
    103 H103      -76.8693   26.0846  -79.4012 H         1 UNK         0.0837 
    104 H104      -76.8414   24.3928  -78.9161 H         1 UNK         0.0837 
    105 H105      -78.0857   25.4774  -78.2947 H         1 UNK         0.0837 
    106 H106      -77.2160   24.2662  -76.3709 H         1 UNK         0.3020 
    107 H107      -75.5106   23.3833  -73.4452 H         1 UNK         0.1245 
    108 H108      -77.8632   25.3279  -73.6381 H         1 UNK         0.0781 
    109 H109      -76.4579   25.5121  -72.6178 H         1 UNK         0.0781 
    110 H110      -76.4199   24.4126  -70.0540 H         1 UNK         0.0836 
    111 H111      -78.0219   24.3677  -69.3674 H         1 UNK         0.0836 
    112 H112      -78.1419   22.8090  -74.2342 H         1 UNK         0.3022 
    113 H113      -77.8040   20.7680  -76.9663 H         1 UNK         0.0747 
    114 H114      -78.6502   18.8276  -75.6606 H         1 UNK         0.0793 
    115 H115      -76.9314   19.0404  -75.3796 H         1 UNK         0.0793 
    116 H116      -78.0839   19.5599  -74.1580 H         1 UNK         0.0793 
    117 H117      -79.9323   20.9446  -75.0946 H         1 UNK         0.3047 
    118 H118      -81.8755   22.6577  -76.4251 H         1 UNK         0.0822 
    119 H119      -81.5049   21.6993  -74.1412 H         1 UNK         0.0807 
    120 H120      -82.3939   23.1920  -73.9869 H         1 UNK         0.0807 
    121 H121      -80.6734   23.1666  -73.6275 H         1 UNK         0.0807 
    122 H122      -80.2493   24.9851  -76.1573 H         1 UNK         0.2946 
    123 H123      -81.4364   26.9683  -77.1419 H         1 UNK         0.1144 
    124 H124      -83.8963   27.3451  -77.0595 H         1 UNK         0.0793 
    125 H125      -83.0278   28.7496  -76.4656 H         1 UNK         0.0793 
    126 H126      -83.8133   27.6526  -75.3298 H         1 UNK         0.0793 
    127 H127      -81.5719   27.9125  -74.3807 H         1 UNK         0.2896 
@<TRIPOS>BOND
     1    1    2 1    
     2    1   67 1    
     3    1   68 1    
     4    1   69 1    
     5    2    3 2    
     6    2    4 am   BACKBONE|DICT|INTERRES
     7    4    5 1    
     8    4   70 1    
     9    5    6 1    
    10    5   65 1    
    11    5   71 1    
    12    6    7 1    
    13    6   72 1    
    14    6   73 1    
    15    7    8 1    
    16    8    9 1    
    17    8   74 1    
    18    8   75 1    
    19    9   10 ar   
    20    9   14 ar   
    21   10   11 ar   
    22   10   76 1    
    23   11   12 ar   
    24   11   48 1    
    25   12   13 ar   
    26   12   77 1    
    27   13   14 ar   
    28   13   15 1    
    29   14   78 1    
    30   15   16 1    
    31   15   79 1    
    32   15   80 1    
    33   16   17 1    
    34   17   18 1    
    35   17   81 1    
    36   17   82 1    
    37   18   19 1    
    38   18   22 1    
    39   18   83 1    
    40   19   20 am   BACKBONE|DICT|INTERRES
    41   19   21 2    
    42   20   84 1    
    43   20   85 1    
    44   22   23 am   BACKBONE|DICT|INTERRES
    45   22   86 1    
    46   23   24 2    
    47   23   25 1    
    48   25   26 1    
    49   25   27 1    
    50   25   87 1    
    51   26   88 1    
    52   26   89 1    
    53   26   90 1    
    54   27   28 am   BACKBONE|DICT|INTERRES
    55   27   91 1    
    56   28   29 2    
    57   28   30 1    
    58   30   31 1    
    59   30   32 1    
    60   30   92 1    
    61   31   93 1    
    62   31   94 1    
    63   31   95 1    
    64   32   33 am   BACKBONE|DICT|INTERRES
    65   32   96 1    
    66   33   34 2    
    67   33   35 1    
    68   35   36 1    
    69   35   37 1    
    70   35   97 1    
    71   36   98 1    
    72   36   99 1    
    73   36  100 1    
    74   37   38 am   BACKBONE|DICT|INTERRES
    75   37  101 1    
    76   38   39 2    
    77   38   40 1    
    78   40   41 1    
    79   40   42 1    
    80   40  102 1    
    81   41  103 1    
    82   41  104 1    
    83   41  105 1    
    84   42   43 am   BACKBONE|DICT|INTERRES
    85   42  106 1    
    86   43   44 2    
    87   43   45 1    
    88   45   46 1    
    89   45   49 1    
    90   45  107 1    
    91   46   47 1    
    92   46  108 1    
    93   46  109 1    
    94   47   48 1    
    95   48  110 1    
    96   48  111 1    
    97   49   50 am   BACKBONE|DICT|INTERRES
    98   49  112 1    
    99   50   51 2    
   100   50   52 1    
   101   52   53 1    
   102   52   54 1    
   103   52  113 1    
   104   53  114 1    
   105   53  115 1    
   106   53  116 1    
   107   54   55 am   BACKBONE|DICT|INTERRES
   108   54  117 1    
   109   55   56 2    
   110   55   57 1    
   111   57   58 1    
   112   57   59 1    
   113   57  118 1    
   114   58  119 1    
   115   58  120 1    
   116   58  121 1    
   117   59   60 am   BACKBONE|DICT|INTERRES
   118   59  122 1    
   119   60   61 2    
   120   60   62 1    
   121   62   63 1    
   122   62   64 1    
   123   62  123 1    
   124   63  124 1    
   125   63  125 1    
   126   63  126 1    
   127   64   65 am   BACKBONE|DICT|INTERRES
   128   64  127 1    
   129   65   66 2    
@<TRIPOS>SUBSTRUCTURE
     1 UNK         1 GROUP             0       ****    0 ROOT    
