@<TRIPOS>MOLECULE
3R135
127   129    1
SMALL
USER_CHARGES


@<TRIPOS>ATOM
      1 CA        -86.1784   26.8259  -73.3846 C.3       0 UNK        -0.1998 
      2 C         -84.6929   26.5114  -73.4732 C.2       0 UNK         0.4909 
      3 O         -84.3217   25.4750  -74.0265 O.2       0 UNK        -0.5240 
      4 N         -83.8432   27.4044  -72.9437 N.am      1 UNK        -0.4739 
      5 CA        -82.3734   27.3424  -72.8900 C.3       1 UNK         0.0864 
      6 C6        -81.8438   26.1146  -72.0871 C.3       11 UNK        -0.0881 
      7 S7        -80.0298   25.8956  -72.0688 S.3       11 UNK        -0.2682 
      8 C8        -79.5091   27.1153  -70.8193 C.3       11 UNK         0.0289 
      9 C9        -78.2691   27.8587  -71.2927 C.ar      11 UNK        -0.0687 
     10 C10       -78.3980   28.9075  -72.2062 C.ar      11 UNK        -0.0823 
     11 C11       -77.2698   29.5571  -72.7135 C.ar      11 UNK        -0.0830 
     12 C12       -76.0020   29.1664  -72.2765 C.ar      11 UNK        -0.1021 
     13 C13       -75.8585   28.1315  -71.3466 C.ar      11 UNK        -0.0753 
     14 C14       -76.9959   27.4853  -70.8515 C.ar      11 UNK        -0.0933 
     15 C15       -74.4692   27.6915  -70.9159 C.3       11 UNK         0.0166 
     16 S16       -73.6436   28.9759  -69.9257 S.3       11 UNK        -0.2615 
     17 C17       -71.8953   28.6949  -70.3690 C.3       11 UNK        -0.0865 
     18 CA        -71.3820   29.7184  -71.4159 C.3       10 UNK         0.0862 
     19 C         -69.8478   29.5770  -71.6111 C.2       10 UNK         0.5551 
     20 N         -69.0557   30.3032  -70.8348 N.am      10 UNK        -0.7319 
     21 O         -69.3728   28.7866  -72.4248 O.2       10 UNK        -0.5018 
     22 N         -72.1105   29.6027  -72.6868 N.am      10 UNK        -0.4509 
     23 C         -72.0780   30.4927  -73.6836 C.2       10 UNK         0.4899 
     24 O         -71.4986   31.5781  -73.6171 O.2       10 UNK        -0.4839 
     25 CA        -72.8013   30.0761  -74.9792 C.3       9 UNK         0.0222 
     26 CB        -72.8917   31.2176  -76.0082 C.3       9 UNK        -0.1966 
     27 N         -72.1531   28.9182  -75.6011 N.am      9 UNK        -0.4218 
     28 C         -72.3044   27.6521  -75.1950 C.2       9 UNK         0.5020 
     29 O         -73.0172   27.3241  -74.2456 O.2       9 UNK        -0.5274 
     30 CA        -71.4915   26.5828  -75.9276 C.3       8 UNK         0.0270 
     31 CB        -70.3445   26.0695  -75.0356 C.3       8 UNK        -0.1976 
     32 N         -72.3818   25.4885  -76.3077 N.am      8 UNK        -0.4313 
     33 C         -72.1167   24.5807  -77.2561 C.2       8 UNK         0.5041 
     34 O         -71.0548   24.5300  -77.8792 O.2       8 UNK        -0.5577 
     35 CA        -73.2308   23.5795  -77.5984 C.3       7 UNK         0.0284 
     36 CB        -73.4039   22.5223  -76.4942 C.3       7 UNK        -0.1958 
     37 N         -74.4963   24.2711  -77.8472 N.am      7 UNK        -0.4454 
     38 C         -74.8099   24.8666  -79.0075 C.2       7 UNK         0.5089 
     39 O         -74.1056   24.8097  -80.0164 O.2       7 UNK        -0.5125 
     40 CA        -76.1270   25.6633  -79.0683 C.3       6 UNK         0.0408 
     41 CB        -77.2536   24.7913  -79.6441 C.3       6 UNK        -0.1791 
     42 N         -76.5480   26.2021  -77.7741 N.am      6 UNK        -0.4762 
     43 C         -75.8941   27.1521  -77.0880 C.2       6 UNK         0.5007 
     44 O         -74.8962   27.7352  -77.5119 O.2       6 UNK        -0.5032 
     45 CA        -76.4224   27.4665  -75.6727 C.3       5 UNK         0.0783 
     46 C46       -77.4956   28.5878  -75.7049 C.3       11 UNK        -0.0857 
     47 S47       -76.7496   30.2229  -75.3827 S.3       11 UNK        -0.2512 
     48 C48       -77.4305   30.6652  -73.7474 C.3       11 UNK         0.0225 
     49 N         -76.8884   26.2669  -74.9653 N.am      5 UNK        -0.4615 
     50 C         -76.1130   25.2150  -74.6627 C.2       4 UNK         0.5053 
     51 O         -74.9283   25.1255  -74.9778 O.2       4 UNK        -0.5105 
     52 CA        -76.7750   24.0326  -73.9430 C.3       4 UNK         0.0263 
     53 CB        -76.7212   24.2100  -72.4200 C.3       4 UNK        -0.1981 
     54 N         -78.1546   23.8212  -74.3858 N.am      4 UNK        -0.4224 
     55 C         -78.4612   23.2640  -75.5654 C.2       3 UNK         0.4895 
     56 O         -77.6229   22.8615  -76.3733 O.2       3 UNK        -0.5091 
     57 CA        -79.9531   23.1417  -75.9070 C.3       3 UNK         0.0250 
     58 CB        -80.6452   22.1150  -74.9942 C.3       3 UNK        -0.1996 
     59 N         -80.6920   24.4069  -75.8688 N.am      3 UNK        -0.4254 
     60 C         -80.4086   25.5079  -76.5829 C.2       2 UNK         0.5004 
     61 O         -79.3832   25.6591  -77.2454 O.2       2 UNK        -0.5226 
     62 CA        -81.4606   26.6269  -76.5665 C.3       2 UNK         0.0269 
     63 CB        -82.5206   26.3810  -77.6521 C.3       2 UNK        -0.1926 
     64 N         -82.1173   26.7202  -75.2626 N.am      2 UNK        -0.4687 
     65 C         -81.7090   27.5208  -74.2743 C.2       1 UNK         0.5165 
     66 O         -80.8443   28.3835  -74.4214 O.2       1 UNK        -0.5079 
     67 H67       -86.6963   26.0356  -72.8418 H         1 UNK         0.0900 
     68 H68       -86.3671   27.7690  -72.8720 H         1 UNK         0.0900 
     69 H69       -86.6078   26.8907  -74.3839 H         1 UNK         0.0900 
     70 H70       -84.2346   28.2441  -72.5383 H         1 UNK         0.2959 
     71 H71       -82.0817   28.2283  -72.3235 H         1 UNK         0.1079 
     72 H72       -82.2016   26.1634  -71.0575 H         1 UNK         0.0837 
     73 H73       -82.2565   25.1911  -72.4942 H         1 UNK         0.0837 
     74 H74       -80.3089   27.8311  -70.6259 H         1 UNK         0.0685 
     75 H75       -79.3184   26.6034  -69.8750 H         1 UNK         0.0685 
     76 H76       -79.3817   29.1988  -72.5445 H         1 UNK         0.1434 
     77 H77       -75.1239   29.6606  -72.6674 H         1 UNK         0.1329 
     78 H78       -76.8897   26.6731  -70.1456 H         1 UNK         0.1335 
     79 H79       -73.8871   27.4672  -71.8087 H         1 UNK         0.0680 
     80 H80       -74.5097   26.7671  -70.3380 H         1 UNK         0.0680 
     81 H81       -71.3145   28.7745  -69.4479 H         1 UNK         0.1032 
     82 H82       -71.7539   27.6711  -70.7213 H         1 UNK         0.1032 
     83 H83       -71.5751   30.7205  -71.0269 H         1 UNK         0.0461 
     84 H84       -68.0564   30.2141  -70.9347 H         1 UNK         0.3453 
     85 H85       -69.4355   30.9475  -70.1585 H         1 UNK         0.3453 
     86 H86       -72.5467   28.7074  -72.8806 H         1 UNK         0.2984 
     87 H87       -73.8222   29.8014  -74.7083 H         1 UNK         0.0554 
     88 H88       -73.3939   32.0867  -75.5812 H         1 UNK         0.0847 
     89 H89       -73.4663   30.9137  -76.8837 H         1 UNK         0.0847 
     90 H90       -71.9065   31.5415  -76.3458 H         1 UNK         0.0847 
     91 H91       -71.5185   29.1135  -76.3622 H         1 UNK         0.3141 
     92 H92       -71.0702   27.0210  -76.8350 H         1 UNK         0.0743 
     93 H93       -69.7048   26.8913  -74.7104 H         1 UNK         0.0784 
     94 H94       -70.7249   25.5789  -74.1386 H         1 UNK         0.0784 
     95 H95       -69.7118   25.3570  -75.5646 H         1 UNK         0.0784 
     96 H96       -73.2789   25.4662  -75.8202 H         1 UNK         0.3213 
     97 H97       -72.9375   23.0523  -78.5092 H         1 UNK         0.0855 
     98 H98       -73.6445   22.9650  -75.5283 H         1 UNK         0.0814 
     99 H99       -72.4856   21.9485  -76.3642 H         1 UNK         0.0814 
    100 H100      -74.1955   21.8155  -76.7436 H         1 UNK         0.0814 
    101 H101      -75.1074   24.4065  -77.0517 H         1 UNK         0.3105 
    102 H102      -75.9700   26.5059  -79.7447 H         1 UNK         0.0547 
    103 H103      -78.1682   25.3674  -79.7852 H         1 UNK         0.0837 
    104 H104      -76.9755   24.3819  -80.6162 H         1 UNK         0.0837 
    105 H105      -77.4865   23.9509  -78.9888 H         1 UNK         0.0837 
    106 H106      -77.4082   25.8238  -77.3849 H         1 UNK         0.3020 
    107 H107      -75.5624   27.8161  -75.0958 H         1 UNK         0.1245 
    108 H108      -78.2706   28.4028  -74.9626 H         1 UNK         0.0781 
    109 H109      -78.0299   28.6222  -76.6567 H         1 UNK         0.0781 
    110 H110      -78.4827   30.9275  -73.8700 H         1 UNK         0.0836 
    111 H111      -76.9316   31.5662  -73.3883 H         1 UNK         0.0836 
    112 H112      -77.8576   26.2517  -74.6865 H         1 UNK         0.3022 
    113 H113      -76.1959   23.1385  -74.1863 H         1 UNK         0.0747 
    114 H114      -77.1291   23.3418  -71.9025 H         1 UNK         0.0793 
    115 H115      -75.6931   24.3407  -72.0794 H         1 UNK         0.0793 
    116 H116      -77.2807   25.0853  -72.1004 H         1 UNK         0.0793 
    117 H117      -78.8963   24.1385  -73.7766 H         1 UNK         0.3047 
    118 H118      -80.0146   22.7710  -76.9325 H         1 UNK         0.0822 
    119 H119      -80.1105   21.1640  -74.9989 H         1 UNK         0.0807 
    120 H120      -81.6632   21.9118  -75.3275 H         1 UNK         0.0807 
    121 H121      -80.6947   22.4567  -73.9595 H         1 UNK         0.0807 
    122 H122      -81.5508   24.4030  -75.3392 H         1 UNK         0.2946 
    123 H123      -80.9490   27.5641  -76.7992 H         1 UNK         0.1144 
    124 H124      -83.2406   27.1985  -77.6924 H         1 UNK         0.0793 
    125 H125      -83.0732   25.4566  -77.4792 H         1 UNK         0.0793 
    126 H126      -82.0590   26.3072  -78.6379 H         1 UNK         0.0793 
    127 H127      -82.8836   26.0827  -75.0589 H         1 UNK         0.2896 
@<TRIPOS>BOND
     1    1    2 1    
     2    1   67 1    
     3    1   68 1    
     4    1   69 1    
     5    2    3 2    
     6    2    4 am   BACKBONE|DICT|INTERRES
     7    4    5 1    
     8    4   70 1    
     9    5    6 1    
    10    5   65 1    
    11    5   71 1    
    12    6    7 1    
    13    6   72 1    
    14    6   73 1    
    15    7    8 1    
    16    8    9 1    
    17    8   74 1    
    18    8   75 1    
    19    9   10 ar   
    20    9   14 ar   
    21   10   11 ar   
    22   10   76 1    
    23   11   12 ar   
    24   11   48 1    
    25   12   13 ar   
    26   12   77 1    
    27   13   14 ar   
    28   13   15 1    
    29   14   78 1    
    30   15   16 1    
    31   15   79 1    
    32   15   80 1    
    33   16   17 1    
    34   17   18 1    
    35   17   81 1    
    36   17   82 1    
    37   18   19 1    
    38   18   22 1    
    39   18   83 1    
    40   19   20 am   BACKBONE|DICT|INTERRES
    41   19   21 2    
    42   20   84 1    
    43   20   85 1    
    44   22   23 am   BACKBONE|DICT|INTERRES
    45   22   86 1    
    46   23   24 2    
    47   23   25 1    
    48   25   26 1    
    49   25   27 1    
    50   25   87 1    
    51   26   88 1    
    52   26   89 1    
    53   26   90 1    
    54   27   28 am   BACKBONE|DICT|INTERRES
    55   27   91 1    
    56   28   29 2    
    57   28   30 1    
    58   30   31 1    
    59   30   32 1    
    60   30   92 1    
    61   31   93 1    
    62   31   94 1    
    63   31   95 1    
    64   32   33 am   BACKBONE|DICT|INTERRES
    65   32   96 1    
    66   33   34 2    
    67   33   35 1    
    68   35   36 1    
    69   35   37 1    
    70   35   97 1    
    71   36   98 1    
    72   36   99 1    
    73   36  100 1    
    74   37   38 am   BACKBONE|DICT|INTERRES
    75   37  101 1    
    76   38   39 2    
    77   38   40 1    
    78   40   41 1    
    79   40   42 1    
    80   40  102 1    
    81   41  103 1    
    82   41  104 1    
    83   41  105 1    
    84   42   43 am   BACKBONE|DICT|INTERRES
    85   42  106 1    
    86   43   44 2    
    87   43   45 1    
    88   45   46 1    
    89   45   49 1    
    90   45  107 1    
    91   46   47 1    
    92   46  108 1    
    93   46  109 1    
    94   47   48 1    
    95   48  110 1    
    96   48  111 1    
    97   49   50 am   BACKBONE|DICT|INTERRES
    98   49  112 1    
    99   50   51 2    
   100   50   52 1    
   101   52   53 1    
   102   52   54 1    
   103   52  113 1    
   104   53  114 1    
   105   53  115 1    
   106   53  116 1    
   107   54   55 am   BACKBONE|DICT|INTERRES
   108   54  117 1    
   109   55   56 2    
   110   55   57 1    
   111   57   58 1    
   112   57   59 1    
   113   57  118 1    
   114   58  119 1    
   115   58  120 1    
   116   58  121 1    
   117   59   60 am   BACKBONE|DICT|INTERRES
   118   59  122 1    
   119   60   61 2    
   120   60   62 1    
   121   62   63 1    
   122   62   64 1    
   123   62  123 1    
   124   63  124 1    
   125   63  125 1    
   126   63  126 1    
   127   64   65 am   BACKBONE|DICT|INTERRES
   128   64  127 1    
   129   65   66 2    
@<TRIPOS>SUBSTRUCTURE
     1 UNK         1 GROUP             0       ****    0 ROOT    
