@<TRIPOS>MOLECULE
3R135
127   129    1
SMALL
USER_CHARGES


@<TRIPOS>ATOM
      1 CA        -83.5715   31.3957  -74.1469 C.3       0 UNK        -0.1998 
      2 C         -82.3616   30.8016  -74.8519 C.2       0 UNK         0.4909 
      3 O         -82.1091   31.1243  -76.0130 O.2       0 UNK        -0.5240 
      4 N         -81.6100   29.9374  -74.1575 N.am      1 UNK        -0.4739 
      5 CA        -80.4311   29.2357  -74.6818 C.3       1 UNK         0.0864 
      6 C6        -79.5686   28.6312  -73.5433 C.3       11 UNK        -0.0881 
      7 S7        -80.5037   27.5330  -72.4150 S.3       11 UNK        -0.2682 
      8 C8        -79.9988   28.1413  -70.7747 C.3       11 UNK         0.0289 
      9 C9        -78.5478   27.7953  -70.4767 C.ar      11 UNK        -0.0687 
     10 C10       -78.2002   26.4910  -70.1099 C.ar      11 UNK        -0.0823 
     11 C11       -76.8640   26.1555  -69.8745 C.ar      11 UNK        -0.0830 
     12 C12       -75.8785   27.1416  -69.9761 C.ar      11 UNK        -0.1021 
     13 C13       -76.2103   28.4417  -70.3638 C.ar      11 UNK        -0.0753 
     14 C14       -77.5499   28.7679  -70.5964 C.ar      11 UNK        -0.0933 
     15 C15       -75.1127   29.4762  -70.5775 C.3       11 UNK         0.0166 
     16 S16       -73.9958   29.0077  -71.9436 S.3       11 UNK        -0.2615 
     17 C17       -75.1367   28.9923  -73.3729 C.3       11 UNK        -0.0865 
     18 CA        -74.7847   29.9982  -74.4981 C.3       10 UNK         0.0862 
     19 C         -74.9217   31.4797  -74.0406 C.2       10 UNK         0.5551 
     20 N         -76.1465   31.9588  -73.8658 N.am      10 UNK        -0.7319 
     21 O         -73.9414   32.1894  -73.8211 O.2       10 UNK        -0.5018 
     22 N         -73.4908   29.6868  -75.1242 N.am      10 UNK        -0.4509 
     23 C         -73.0914   30.1660  -76.3082 C.2       10 UNK         0.4899 
     24 O         -73.8097   30.8507  -77.0381 O.2       10 UNK        -0.4839 
     25 CA        -71.6662   29.8346  -76.7895 C.3       9 UNK         0.0222 
     26 CB        -70.6615   30.9037  -76.3164 C.3       9 UNK        -0.1966 
     27 N         -71.1959   28.4741  -76.4911 N.am      9 UNK        -0.4218 
     28 C         -70.8769   27.9235  -75.3112 C.2       9 UNK         0.5020 
     29 O         -70.9733   28.5122  -74.2335 O.2       9 UNK        -0.5274 
     30 CA        -70.3947   26.4615  -75.3575 C.3       8 UNK         0.0270 
     31 CB        -70.2291   25.8460  -73.9549 C.3       8 UNK        -0.1976 
     32 N         -71.3482   25.6569  -76.1203 N.am      8 UNK        -0.4313 
     33 C         -71.1925   25.2434  -77.3861 C.2       8 UNK         0.5041 
     34 O         -70.1637   25.4230  -78.0381 O.2       8 UNK        -0.5577 
     35 CA        -72.3962   24.5530  -78.0616 C.3       7 UNK         0.0284 
     36 CB        -72.2688   23.0254  -77.9541 C.3       7 UNK        -0.1958 
     37 N         -73.6890   24.9682  -77.5094 N.am      7 UNK        -0.4454 
     38 C         -74.1698   26.2209  -77.5461 C.2       7 UNK         0.5089 
     39 O         -73.6512   27.1271  -78.1983 O.2       7 UNK        -0.5125 
     40 CA        -75.3997   26.5398  -76.6725 C.3       6 UNK         0.0408 
     41 CB        -76.6573   26.6650  -77.5437 C.3       6 UNK        -0.1791 
     42 N         -75.6597   25.5793  -75.5926 N.am      6 UNK        -0.4762 
     43 C         -74.8010   25.2262  -74.6195 C.2       6 UNK         0.5007 
     44 O         -73.6791   25.7145  -74.4987 O.2       6 UNK        -0.5032 
     45 CA        -75.2482   24.1268  -73.6318 C.3       5 UNK         0.0783 
     46 C46       -75.7563   24.8097  -72.3413 C.3       11 UNK        -0.0857 
     47 S47       -76.4877   23.6825  -71.1030 S.3       11 UNK        -0.2512 
     48 C48       -76.4652   24.7128  -69.5921 C.3       11 UNK         0.0225 
     49 N         -76.2418   23.2105  -74.1988 N.am      5 UNK        -0.4615 
     50 C         -76.1354   22.5049  -75.3338 C.2       4 UNK         0.5053 
     51 O         -75.1124   22.4623  -76.0186 O.2       4 UNK        -0.5105 
     52 CA        -77.4029   21.7724  -75.8185 C.3       4 UNK         0.0263 
     53 CB        -77.2747   20.2612  -75.5691 C.3       4 UNK        -0.1981 
     54 N         -78.6551   22.2565  -75.2164 N.am      4 UNK        -0.4224 
     55 C         -79.1289   23.5095  -75.2951 C.2       3 UNK         0.4895 
     56 O         -78.5566   24.4234  -75.8947 O.2       3 UNK        -0.5091 
     57 CA        -80.4002   23.7943  -74.4781 C.3       3 UNK         0.0250 
     58 CB        -80.0369   23.9808  -72.9939 C.3       3 UNK        -0.1996 
     59 N         -81.1096   24.9871  -74.9441 N.am      3 UNK        -0.4254 
     60 C         -81.7766   25.0843  -76.1036 C.2       2 UNK         0.5004 
     61 O         -81.9118   24.1469  -76.8919 O.2       2 UNK        -0.5226 
     62 CA        -82.4335   26.4391  -76.4368 C.3       2 UNK         0.0269 
     63 CB        -83.9635   26.3423  -76.3134 C.3       2 UNK        -0.1926 
     64 N         -81.9630   27.5405  -75.5917 N.am      2 UNK        -0.4687 
     65 C         -80.7877   28.1686  -75.7391 C.2       1 UNK         0.5165 
     66 O         -79.9994   27.9333  -76.6543 O.2       1 UNK        -0.5079 
     67 H67       -83.4887   32.4816  -74.1106 H         1 UNK         0.0900 
     68 H68       -84.4828   31.1409  -74.6873 H         1 UNK         0.0900 
     69 H69       -83.6692   31.0290  -73.1252 H         1 UNK         0.0900 
     70 H70       -81.8612   29.7057  -73.2064 H         1 UNK         0.2959 
     71 H71       -79.8165   29.9766  -75.1985 H         1 UNK         0.1079 
     72 H72       -79.1332   29.4475  -72.9667 H         1 UNK         0.0837 
     73 H73       -78.7193   28.0755  -73.9470 H         1 UNK         0.0837 
     74 H74       -80.1665   29.2177  -70.7128 H         1 UNK         0.0685 
     75 H75       -80.6411   27.6881  -70.0182 H         1 UNK         0.0685 
     76 H76       -78.9647   25.7282  -70.0492 H         1 UNK         0.1434 
     77 H77       -74.8401   26.8855  -69.8146 H         1 UNK         0.1329 
     78 H78       -77.8128   29.7729  -70.8964 H         1 UNK         0.1335 
     79 H79       -75.5350   30.4610  -70.7840 H         1 UNK         0.0680 
     80 H80       -74.5299   29.5749  -69.6608 H         1 UNK         0.0680 
     81 H81       -76.1601   29.1603  -73.0373 H         1 UNK         0.1032 
     82 H82       -75.1382   27.9814  -73.7772 H         1 UNK         0.1032 
     83 H83       -75.5347   29.8569  -75.2794 H         1 UNK         0.0461 
     84 H84       -76.9620   31.3988  -74.0527 H         1 UNK         0.3453 
     85 H85       -76.2556   32.9137  -73.5619 H         1 UNK         0.3453 
     86 H86       -72.8121   29.1934  -74.5521 H         1 UNK         0.2984 
     87 H87       -71.6962   29.8842  -77.8792 H         1 UNK         0.0554 
     88 H88       -69.6641   30.7174  -76.7145 H         1 UNK         0.0847 
     89 H89       -70.5885   30.9434  -75.2292 H         1 UNK         0.0847 
     90 H90       -70.9650   31.8959  -76.6530 H         1 UNK         0.0847 
     91 H91       -71.1382   27.8678  -77.2988 H         1 UNK         0.3141 
     92 H92       -69.4167   26.4580  -75.8430 H         1 UNK         0.0743 
     93 H93       -71.1647   25.8609  -73.3942 H         1 UNK         0.0784 
     94 H94       -69.8902   24.8117  -74.0138 H         1 UNK         0.0784 
     95 H95       -69.4901   26.3966  -73.3714 H         1 UNK         0.0784 
     96 H96       -72.2513   25.5275  -75.6666 H         1 UNK         0.3213 
     97 H97       -72.3817   24.8275  -79.1186 H         1 UNK         0.0855 
     98 H98       -72.2976   22.6905  -76.9162 H         1 UNK         0.0814 
     99 H99       -71.3272   22.6803  -78.3835 H         1 UNK         0.0814 
    100 H100      -73.0733   22.5209  -78.4897 H         1 UNK         0.0814 
    101 H101      -74.1936   24.2766  -76.9664 H         1 UNK         0.3105 
    102 H102      -75.2128   27.5078  -76.2064 H         1 UNK         0.0547 
    103 H103      -76.5171   27.4031  -78.3347 H         1 UNK         0.0837 
    104 H104      -76.9142   25.7176  -78.0192 H         1 UNK         0.0837 
    105 H105      -77.5159   26.9838  -76.9533 H         1 UNK         0.0837 
    106 H106      -76.5675   25.1244  -75.6163 H         1 UNK         0.3020 
    107 H107      -74.3653   23.5319  -73.3888 H         1 UNK         0.1245 
    108 H108      -76.5138   25.5600  -72.5811 H         1 UNK         0.0781 
    109 H109      -74.9294   25.3460  -71.8718 H         1 UNK         0.0781 
    110 H110      -75.4673   24.6724  -69.1527 H         1 UNK         0.0836 
    111 H111      -77.1411   24.2802  -68.8531 H         1 UNK         0.0836 
    112 H112      -77.1143   23.1605  -73.6948 H         1 UNK         0.3022 
    113 H113      -77.4734   21.9389  -76.8954 H         1 UNK         0.0747 
    114 H114      -78.1166   19.7146  -75.9943 H         1 UNK         0.0793 
    115 H115      -76.3689   19.8646  -76.0304 H         1 UNK         0.0793 
    116 H116      -77.2252   20.0305  -74.5041 H         1 UNK         0.0793 
    117 H117      -79.1822   21.5774  -74.6856 H         1 UNK         0.3047 
    118 H118      -81.0753   22.9410  -74.5739 H         1 UNK         0.0822 
    119 H119      -79.3123   24.7845  -72.8531 H         1 UNK         0.0807 
    120 H120      -79.5977   23.0744  -72.5755 H         1 UNK         0.0807 
    121 H121      -80.9164   24.2158  -72.3940 H         1 UNK         0.0807 
    122 H122      -81.0276   25.8149  -74.3711 H         1 UNK         0.2946 
    123 H123      -82.1864   26.6671  -77.4763 H         1 UNK         0.1144 
    124 H124      -84.4453   27.2742  -76.6101 H         1 UNK         0.0793 
    125 H125      -84.2728   26.1128  -75.2929 H         1 UNK         0.0793 
    126 H126      -84.3590   25.5562  -76.9583 H         1 UNK         0.0793 
    127 H127      -82.5480   27.8043  -74.8117 H         1 UNK         0.2896 
@<TRIPOS>BOND
     1    1    2 1    
     2    1   67 1    
     3    1   68 1    
     4    1   69 1    
     5    2    3 2    
     6    2    4 am   BACKBONE|DICT|INTERRES
     7    4    5 1    
     8    4   70 1    
     9    5    6 1    
    10    5   65 1    
    11    5   71 1    
    12    6    7 1    
    13    6   72 1    
    14    6   73 1    
    15    7    8 1    
    16    8    9 1    
    17    8   74 1    
    18    8   75 1    
    19    9   10 ar   
    20    9   14 ar   
    21   10   11 ar   
    22   10   76 1    
    23   11   12 ar   
    24   11   48 1    
    25   12   13 ar   
    26   12   77 1    
    27   13   14 ar   
    28   13   15 1    
    29   14   78 1    
    30   15   16 1    
    31   15   79 1    
    32   15   80 1    
    33   16   17 1    
    34   17   18 1    
    35   17   81 1    
    36   17   82 1    
    37   18   19 1    
    38   18   22 1    
    39   18   83 1    
    40   19   20 am   BACKBONE|DICT|INTERRES
    41   19   21 2    
    42   20   84 1    
    43   20   85 1    
    44   22   23 am   BACKBONE|DICT|INTERRES
    45   22   86 1    
    46   23   24 2    
    47   23   25 1    
    48   25   26 1    
    49   25   27 1    
    50   25   87 1    
    51   26   88 1    
    52   26   89 1    
    53   26   90 1    
    54   27   28 am   BACKBONE|DICT|INTERRES
    55   27   91 1    
    56   28   29 2    
    57   28   30 1    
    58   30   31 1    
    59   30   32 1    
    60   30   92 1    
    61   31   93 1    
    62   31   94 1    
    63   31   95 1    
    64   32   33 am   BACKBONE|DICT|INTERRES
    65   32   96 1    
    66   33   34 2    
    67   33   35 1    
    68   35   36 1    
    69   35   37 1    
    70   35   97 1    
    71   36   98 1    
    72   36   99 1    
    73   36  100 1    
    74   37   38 am   BACKBONE|DICT|INTERRES
    75   37  101 1    
    76   38   39 2    
    77   38   40 1    
    78   40   41 1    
    79   40   42 1    
    80   40  102 1    
    81   41  103 1    
    82   41  104 1    
    83   41  105 1    
    84   42   43 am   BACKBONE|DICT|INTERRES
    85   42  106 1    
    86   43   44 2    
    87   43   45 1    
    88   45   46 1    
    89   45   49 1    
    90   45  107 1    
    91   46   47 1    
    92   46  108 1    
    93   46  109 1    
    94   47   48 1    
    95   48  110 1    
    96   48  111 1    
    97   49   50 am   BACKBONE|DICT|INTERRES
    98   49  112 1    
    99   50   51 2    
   100   50   52 1    
   101   52   53 1    
   102   52   54 1    
   103   52  113 1    
   104   53  114 1    
   105   53  115 1    
   106   53  116 1    
   107   54   55 am   BACKBONE|DICT|INTERRES
   108   54  117 1    
   109   55   56 2    
   110   55   57 1    
   111   57   58 1    
   112   57   59 1    
   113   57  118 1    
   114   58  119 1    
   115   58  120 1    
   116   58  121 1    
   117   59   60 am   BACKBONE|DICT|INTERRES
   118   59  122 1    
   119   60   61 2    
   120   60   62 1    
   121   62   63 1    
   122   62   64 1    
   123   62  123 1    
   124   63  124 1    
   125   63  125 1    
   126   63  126 1    
   127   64   65 am   BACKBONE|DICT|INTERRES
   128   64  127 1    
   129   65   66 2    
@<TRIPOS>SUBSTRUCTURE
     1 UNK         1 GROUP             0       ****    0 ROOT    
