@<TRIPOS>MOLECULE
3R135
127   129    1
SMALL
USER_CHARGES


@<TRIPOS>ATOM
      1 CA        -82.7856   27.5417  -70.4520 C.3       0 UNK        -0.1998 
      2 C         -83.2213   27.6491  -71.9057 C.2       0 UNK         0.4909 
      3 O         -84.3681   27.3386  -72.2280 O.2       0 UNK        -0.5240 
      4 N         -82.3115   28.0845  -72.7866 N.am      1 UNK        -0.4739 
      5 CA        -82.5360   28.2246  -74.2320 C.3       1 UNK         0.0864 
      6 C6        -81.5510   29.2441  -74.8645 C.3       11 UNK        -0.0881 
      7 S7        -79.7933   28.7758  -74.6953 S.3       11 UNK        -0.2682 
      8 C8        -79.2379   29.8527  -73.3414 C.3       11 UNK         0.0289 
      9 C9        -78.0371   29.2430  -72.6369 C.ar      11 UNK        -0.0687 
     10 C10       -78.2161   28.1386  -71.7998 C.ar      11 UNK        -0.0823 
     11 C11       -77.1286   27.5611  -71.1417 C.ar      11 UNK        -0.0830 
     12 C12       -75.8540   28.1109  -71.3079 C.ar      11 UNK        -0.1021 
     13 C13       -75.6596   29.2159  -72.1432 C.ar      11 UNK        -0.0753 
     14 C14       -76.7548   29.7722  -72.8140 C.ar      11 UNK        -0.0933 
     15 C15       -74.2617   29.7840  -72.3435 C.3       11 UNK         0.0166 
     16 S16       -74.1171   31.4916  -71.7303 S.3       11 UNK        -0.2615 
     17 C17       -72.3213   31.8008  -71.8869 C.3       11 UNK        -0.0865 
     18 CA        -71.9448   32.4728  -73.2413 C.3       10 UNK         0.0862 
     19 C         -70.5764   33.2249  -73.2073 C.2       10 UNK         0.5551 
     20 N         -69.8781   33.3644  -74.3277 N.am      10 UNK        -0.7319 
     21 O         -70.1561   33.7226  -72.1653 O.2       10 UNK        -0.5018 
     22 N         -72.1298   31.5525  -74.3797 N.am      10 UNK        -0.4509 
     23 C         -71.3860   30.4714  -74.6570 C.2       10 UNK         0.4899 
     24 O         -70.3482   30.1667  -74.0649 O.2       10 UNK        -0.4839 
     25 CA        -71.8923   29.6072  -75.8265 C.3       9 UNK         0.0222 
     26 CB        -71.3889   30.1726  -77.1650 C.3       9 UNK        -0.1966 
     27 N         -71.5298   28.1870  -75.7494 N.am      9 UNK        -0.4218 
     28 C         -71.7519   27.3516  -74.7237 C.2       9 UNK         0.5020 
     29 O         -72.2225   27.6864  -73.6370 O.2       9 UNK        -0.5274 
     30 CA        -71.4618   25.8697  -75.0044 C.3       8 UNK         0.0270 
     31 CB        -71.4492   25.0078  -73.7274 C.3       8 UNK        -0.1976 
     32 N         -72.5092   25.3816  -75.8976 N.am      8 UNK        -0.4313 
     33 C         -72.4010   25.2942  -77.2300 C.2       8 UNK         0.5041 
     34 O         -71.3503   25.4962  -77.8406 O.2       8 UNK        -0.5577 
     35 CA        -73.6774   24.9637  -78.0282 C.3       7 UNK         0.0284 
     36 CB        -73.7755   23.4507  -78.2804 C.3       7 UNK        -0.1958 
     37 N         -74.9130   25.4228  -77.3895 N.am      7 UNK        -0.4454 
     38 C         -75.2145   26.6953  -77.0907 C.2       7 UNK         0.5089 
     39 O         -74.5198   27.6605  -77.4082 O.2       7 UNK        -0.5125 
     40 CA        -76.5055   26.9274  -76.2845 C.3       6 UNK         0.0408 
     41 CB        -77.6684   27.1762  -77.2580 C.3       6 UNK        -0.1791 
     42 N         -76.8543   25.8269  -75.3743 N.am      6 UNK        -0.4762 
     43 C         -76.0671   25.3196  -74.4097 C.2       6 UNK         0.5007 
     44 O         -74.9190   25.7033  -74.1927 O.2       6 UNK        -0.5032 
     45 CA        -76.6183   24.1199  -73.6174 C.3       5 UNK         0.0783 
     46 C46       -77.5417   24.5425  -72.4455 C.3       11 UNK        -0.0857 
     47 S47       -76.5803   24.8399  -70.9213 S.3       11 UNK        -0.2512 
     48 C48       -77.3376   26.3508  -70.2433 C.3       11 UNK         0.0225 
     49 N         -77.2728   23.1782  -74.5269 N.am      5 UNK        -0.4615 
     50 C         -76.6281   22.2119  -75.1960 C.2       4 UNK         0.5053 
     51 O         -75.4306   21.9643  -75.0556 O.2       4 UNK        -0.5105 
     52 CA        -77.4463   21.3807  -76.2002 C.3       4 UNK         0.0263 
     53 CB        -77.9965   20.1141  -75.5254 C.3       4 UNK        -0.1981 
     54 N         -78.5517   22.1243  -76.8074 N.am      4 UNK        -0.4224 
     55 C         -78.4045   23.1733  -77.6287 C.2       3 UNK         0.4895 
     56 O         -77.3140   23.6084  -77.9993 O.2       3 UNK        -0.5091 
     57 CA        -79.6953   23.8824  -78.0756 C.3       3 UNK         0.0250 
     58 CB        -80.2506   23.2293  -79.3512 C.3       3 UNK        -0.1996 
     59 N         -80.7480   23.9324  -77.0516 N.am      3 UNK        -0.4254 
     60 C         -80.6138   24.4701  -75.8307 C.2       2 UNK         0.5004 
     61 O         -79.5511   24.9058  -75.3821 O.2       2 UNK        -0.5226 
     62 CA        -81.8584   24.4811  -74.9341 C.3       2 UNK         0.0269 
     63 CB        -81.7180   23.4391  -73.8122 C.3       2 UNK        -0.1926 
     64 N         -82.0348   25.8050  -74.3398 N.am      2 UNK        -0.4687 
     65 C         -82.5334   26.8712  -74.9832 C.2       1 UNK         0.5165 
     66 O         -82.9864   26.8176  -76.1282 O.2       1 UNK        -0.5079 
     67 H67       -81.7554   27.8669  -70.3083 H         1 UNK         0.0900 
     68 H68       -82.8666   26.5097  -70.1116 H         1 UNK         0.0900 
     69 H69       -83.4259   28.1592  -69.8226 H         1 UNK         0.0900 
     70 H70       -81.3838   28.3244  -72.4719 H         1 UNK         0.2959 
     71 H71       -83.5414   28.6304  -74.3674 H         1 UNK         0.1079 
     72 H72       -81.7673   29.3678  -75.9274 H         1 UNK         0.0837 
     73 H73       -81.7069   30.2303  -74.4245 H         1 UNK         0.0837 
     74 H74       -78.9998   30.8394  -73.7415 H         1 UNK         0.0685 
     75 H75       -80.0411   29.9970  -72.6178 H         1 UNK         0.0685 
     76 H76       -79.2045   27.7208  -71.6715 H         1 UNK         0.1434 
     77 H77       -75.0108   27.6639  -70.7991 H         1 UNK         0.1329 
     78 H78       -76.6063   30.6216  -73.4666 H         1 UNK         0.1335 
     79 H79       -73.5211   29.1627  -71.8380 H         1 UNK         0.0680 
     80 H80       -74.0240   29.7536  -73.4063 H         1 UNK         0.0680 
     81 H81       -71.7609   30.8764  -71.7381 H         1 UNK         0.1032 
     82 H82       -72.0536   32.4441  -71.0471 H         1 UNK         0.1032 
     83 H83       -72.6647   33.2752  -73.4068 H         1 UNK         0.0461 
     84 H84       -69.0009   33.8601  -74.3063 H         1 UNK         0.3453 
     85 H85       -70.2136   32.9642  -75.1889 H         1 UNK         0.3453 
     86 H86       -72.9363   31.7435  -74.9567 H         1 UNK         0.2984 
     87 H87       -72.9835   29.6463  -75.8249 H         1 UNK         0.0554 
     88 H88       -71.8144   29.6299  -78.0097 H         1 UNK         0.0847 
     89 H89       -70.3021   30.1174  -77.2415 H         1 UNK         0.0847 
     90 H90       -71.6710   31.2195  -77.2841 H         1 UNK         0.0847 
     91 H91       -71.1564   27.7813  -76.5962 H         1 UNK         0.3141 
     92 H92       -70.4784   25.7932  -75.4732 H         1 UNK         0.0743 
     93 H93       -72.4087   25.0347  -73.2089 H         1 UNK         0.0784 
     94 H94       -71.2233   23.9663  -73.9563 H         1 UNK         0.0784 
     95 H95       -70.6901   25.3604  -73.0283 H         1 UNK         0.0784 
     96 H96       -73.4311   25.3045  -75.4759 H         1 UNK         0.3213 
     97 H97       -73.5998   25.4705  -78.9923 H         1 UNK         0.0855 
     98 H98       -73.8897   22.8938  -77.3493 H         1 UNK         0.0814 
     99 H99       -72.8786   23.0779  -78.7771 H         1 UNK         0.0814 
    100 H100      -74.6242   23.2091  -78.9208 H         1 UNK         0.0814 
    101 H101      -75.6023   24.7140  -77.1663 H         1 UNK         0.3105 
    102 H102      -76.3689   27.8178  -75.6674 H         1 UNK         0.0547 
    103 H103      -77.5508   28.1367  -77.7607 H         1 UNK         0.0837 
    104 H104      -77.7115   26.4112  -78.0328 H         1 UNK         0.0837 
    105 H105      -78.6323   27.1877  -76.7525 H         1 UNK         0.0837 
    106 H106      -77.8013   25.4609  -75.4577 H         1 UNK         0.3020 
    107 H107      -75.7519   23.6090  -73.1892 H         1 UNK         0.1245 
    108 H108      -78.2469   23.7427  -72.2139 H         1 UNK         0.0781 
    109 H109      -78.1548   25.4072  -72.7057 H         1 UNK         0.0781 
    110 H110      -76.8992   26.5547  -69.2654 H         1 UNK         0.0836 
    111 H111      -78.3992   26.1692  -70.0680 H         1 UNK         0.0836 
    112 H112      -78.2395   23.3763  -74.7534 H         1 UNK         0.3022 
    113 H113      -76.7689   21.0762  -77.0011 H         1 UNK         0.0747 
    114 H114      -78.5085   19.4720  -76.2425 H         1 UNK         0.0793 
    115 H115      -77.1902   19.5256  -75.0851 H         1 UNK         0.0793 
    116 H116      -78.6988   20.3538  -74.7258 H         1 UNK         0.0793 
    117 H117      -79.4877   21.8377  -76.5608 H         1 UNK         0.3047 
    118 H118      -79.4345   24.9140  -78.3145 H         1 UNK         0.0822 
    119 H119      -81.0997   23.7874  -79.7465 H         1 UNK         0.0807 
    120 H120      -80.5754   22.2033  -79.1732 H         1 UNK         0.0807 
    121 H121      -79.4930   23.1997  -80.1359 H         1 UNK         0.0807 
    122 H122      -81.6549   23.5849  -77.3294 H         1 UNK         0.2946 
    123 H123      -82.7417   24.2394  -75.5298 H         1 UNK         0.1144 
    124 H124      -82.5999   23.4264  -73.1713 H         1 UNK         0.0793 
    125 H125      -80.8493   23.6357  -73.1820 H         1 UNK         0.0793 
    126 H126      -81.6027   22.4350  -74.2227 H         1 UNK         0.0793 
    127 H127      -81.6458   25.9475  -73.4202 H         1 UNK         0.2896 
@<TRIPOS>BOND
     1    1    2 1    
     2    1   67 1    
     3    1   68 1    
     4    1   69 1    
     5    2    3 2    
     6    2    4 am   BACKBONE|DICT|INTERRES
     7    4    5 1    
     8    4   70 1    
     9    5    6 1    
    10    5   65 1    
    11    5   71 1    
    12    6    7 1    
    13    6   72 1    
    14    6   73 1    
    15    7    8 1    
    16    8    9 1    
    17    8   74 1    
    18    8   75 1    
    19    9   10 ar   
    20    9   14 ar   
    21   10   11 ar   
    22   10   76 1    
    23   11   12 ar   
    24   11   48 1    
    25   12   13 ar   
    26   12   77 1    
    27   13   14 ar   
    28   13   15 1    
    29   14   78 1    
    30   15   16 1    
    31   15   79 1    
    32   15   80 1    
    33   16   17 1    
    34   17   18 1    
    35   17   81 1    
    36   17   82 1    
    37   18   19 1    
    38   18   22 1    
    39   18   83 1    
    40   19   20 am   BACKBONE|DICT|INTERRES
    41   19   21 2    
    42   20   84 1    
    43   20   85 1    
    44   22   23 am   BACKBONE|DICT|INTERRES
    45   22   86 1    
    46   23   24 2    
    47   23   25 1    
    48   25   26 1    
    49   25   27 1    
    50   25   87 1    
    51   26   88 1    
    52   26   89 1    
    53   26   90 1    
    54   27   28 am   BACKBONE|DICT|INTERRES
    55   27   91 1    
    56   28   29 2    
    57   28   30 1    
    58   30   31 1    
    59   30   32 1    
    60   30   92 1    
    61   31   93 1    
    62   31   94 1    
    63   31   95 1    
    64   32   33 am   BACKBONE|DICT|INTERRES
    65   32   96 1    
    66   33   34 2    
    67   33   35 1    
    68   35   36 1    
    69   35   37 1    
    70   35   97 1    
    71   36   98 1    
    72   36   99 1    
    73   36  100 1    
    74   37   38 am   BACKBONE|DICT|INTERRES
    75   37  101 1    
    76   38   39 2    
    77   38   40 1    
    78   40   41 1    
    79   40   42 1    
    80   40  102 1    
    81   41  103 1    
    82   41  104 1    
    83   41  105 1    
    84   42   43 am   BACKBONE|DICT|INTERRES
    85   42  106 1    
    86   43   44 2    
    87   43   45 1    
    88   45   46 1    
    89   45   49 1    
    90   45  107 1    
    91   46   47 1    
    92   46  108 1    
    93   46  109 1    
    94   47   48 1    
    95   48  110 1    
    96   48  111 1    
    97   49   50 am   BACKBONE|DICT|INTERRES
    98   49  112 1    
    99   50   51 2    
   100   50   52 1    
   101   52   53 1    
   102   52   54 1    
   103   52  113 1    
   104   53  114 1    
   105   53  115 1    
   106   53  116 1    
   107   54   55 am   BACKBONE|DICT|INTERRES
   108   54  117 1    
   109   55   56 2    
   110   55   57 1    
   111   57   58 1    
   112   57   59 1    
   113   57  118 1    
   114   58  119 1    
   115   58  120 1    
   116   58  121 1    
   117   59   60 am   BACKBONE|DICT|INTERRES
   118   59  122 1    
   119   60   61 2    
   120   60   62 1    
   121   62   63 1    
   122   62   64 1    
   123   62  123 1    
   124   63  124 1    
   125   63  125 1    
   126   63  126 1    
   127   64   65 am   BACKBONE|DICT|INTERRES
   128   64  127 1    
   129   65   66 2    
@<TRIPOS>SUBSTRUCTURE
     1 UNK         1 GROUP             0       ****    0 ROOT    
