@<TRIPOS>MOLECULE
3R135
127   129    1
SMALL
USER_CHARGES


@<TRIPOS>ATOM
      1 CA        -76.7842   26.6061  -71.8582 C.3       0 UNK        -0.1998 
      2 C         -78.1150   26.0483  -71.3880 C.2       0 UNK         0.4909 
      3 O         -78.1740   24.9038  -70.9398 O.2       0 UNK        -0.5240 
      4 N         -79.1845   26.8475  -71.4746 N.am      1 UNK        -0.4739 
      5 CA        -80.5073   26.5474  -70.9102 C.3       1 UNK         0.0864 
      6 C6        -81.2676   27.8302  -70.4656 C.3       11 UNK        -0.0881 
      7 S7        -80.2334   29.0244  -69.5393 S.3       11 UNK        -0.2682 
      8 C8        -80.2560   30.4941  -70.6225 C.3       11 UNK         0.0289 
      9 C9        -79.4996   30.2775  -71.9281 C.ar      11 UNK        -0.0687 
     10 C10       -80.1780   29.8242  -73.0625 C.ar      11 UNK        -0.0823 
     11 C11       -79.4995   29.6000  -74.2616 C.ar      11 UNK        -0.0830 
     12 C12       -78.1339   29.8944  -74.3361 C.ar      11 UNK        -0.1021 
     13 C13       -77.4399   30.3636  -73.2159 C.ar      11 UNK        -0.0753 
     14 C14       -78.1286   30.5440  -72.0106 C.ar      11 UNK        -0.0933 
     15 C15       -75.9408   30.6305  -73.2941 C.3       11 UNK         0.0166 
     16 S16       -75.4876   31.6591  -74.7284 S.3       11 UNK        -0.2615 
     17 C17       -73.7120   31.9616  -74.4412 C.3       11 UNK        -0.0865 
     18 CA        -72.7999   30.8770  -75.0983 C.3       10 UNK         0.0862 
     19 C         -71.3508   31.3781  -75.3968 C.2       10 UNK         0.5551 
     20 N         -71.2048   32.5399  -76.0211 N.am      10 UNK        -0.7319 
     21 O         -70.3526   30.7173  -75.1138 O.2       10 UNK        -0.5018 
     22 N         -72.8450   29.5847  -74.3822 N.am      10 UNK        -0.4509 
     23 C         -72.4136   29.3822  -73.1282 C.2       10 UNK         0.4899 
     24 O         -71.9668   30.2779  -72.4098 O.2       10 UNK        -0.4839 
     25 CA        -72.4908   27.9677  -72.5344 C.3       9 UNK         0.0222 
     26 CB        -73.4991   27.9307  -71.3742 C.3       9 UNK        -0.1966 
     27 N         -72.8105   26.9024  -73.4965 N.am      9 UNK        -0.4218 
     28 C         -72.1926   25.7096  -73.4933 C.2       9 UNK         0.5020 
     29 O         -71.2582   25.4219  -72.7426 O.2       9 UNK        -0.5274 
     30 CA        -72.7007   24.6320  -74.4654 C.3       8 UNK         0.0270 
     31 CB        -74.0002   23.9942  -73.9490 C.3       8 UNK        -0.1976 
     32 N         -72.8982   25.1094  -75.8316 N.am      8 UNK        -0.4313 
     33 C         -71.9250   25.5174  -76.6581 C.2       8 UNK         0.5041 
     34 O         -70.7325   25.5613  -76.3546 O.2       8 UNK        -0.5577 
     35 CA        -72.3611   25.9460  -78.0674 C.3       7 UNK         0.0284 
     36 CB        -72.5038   24.7254  -78.9917 C.3       7 UNK        -0.1958 
     37 N         -73.6236   26.6853  -78.0180 N.am      7 UNK        -0.4454 
     38 C         -73.7016   27.9961  -77.7542 C.2       7 UNK         0.5089 
     39 O         -72.7178   28.7276  -77.6574 O.2       7 UNK        -0.5125 
     40 CA        -75.1014   28.5990  -77.5434 C.3       6 UNK         0.0408 
     41 CB        -75.6030   29.2651  -78.8331 C.3       6 UNK        -0.1791 
     42 N         -76.0934   27.6278  -77.0842 N.am      6 UNK        -0.4762 
     43 C         -76.1315   27.0774  -75.8626 C.2       6 UNK         0.5007 
     44 O         -75.3006   27.3054  -74.9792 O.2       6 UNK        -0.5032 
     45 CA        -77.2591   26.0471  -75.6221 C.3       5 UNK         0.0783 
     46 C46       -78.5964   26.6919  -75.1781 C.3       11 UNK        -0.0857 
     47 S47       -79.3446   27.7919  -76.4392 S.3       11 UNK        -0.2512 
     48 C48       -80.2652   29.0233  -75.4506 C.3       11 UNK         0.0225 
     49 N         -77.4754   25.1344  -76.7453 N.am      5 UNK        -0.4615 
     50 C         -76.5664   24.3389  -77.3158 C.2       4 UNK         0.5053 
     51 O         -75.3603   24.3983  -77.0737 O.2       4 UNK        -0.5105 
     52 CA        -77.1208   23.2740  -78.2812 C.3       4 UNK         0.0263 
     53 CB        -76.0071   22.4559  -78.9604 C.3       4 UNK        -0.1981 
     54 N         -78.0239   22.3605  -77.5724 N.am      4 UNK        -0.4224 
     55 C         -79.2855   22.6409  -77.2148 C.2       3 UNK         0.4895 
     56 O         -79.8651   23.6781  -77.5470 O.2       3 UNK        -0.5091 
     57 CA        -80.0276   21.6194  -76.3297 C.3       3 UNK         0.0250 
     58 CB        -79.1237   20.5111  -75.7399 C.3       3 UNK        -0.1996 
     59 N         -80.7980   22.2834  -75.2684 N.am      3 UNK        -0.4254 
     60 C         -80.3208   23.0517  -74.2762 C.2       2 UNK         0.5004 
     61 O         -79.1237   23.2877  -74.0900 O.2       2 UNK        -0.5226 
     62 CA        -81.3709   23.6404  -73.3220 C.3       2 UNK         0.0269 
     63 CB        -82.0529   22.5373  -72.4886 C.3       2 UNK        -0.1926 
     64 N         -80.7446   24.6094  -72.4230 N.am      2 UNK        -0.4687 
     65 C         -81.3568   25.6483  -71.8430 C.2       1 UNK         0.5165 
     66 O         -82.5478   25.9074  -72.0277 O.2       1 UNK        -0.5079 
     67 H67       -76.3018   25.9142  -72.5449 H         1 UNK         0.0900 
     68 H68       -76.8916   27.5690  -72.3567 H         1 UNK         0.0900 
     69 H69       -76.1323   26.7352  -70.9960 H         1 UNK         0.0900 
     70 H70       -79.0831   27.7822  -71.8467 H         1 UNK         0.2959 
     71 H71       -80.3509   25.9576  -70.0038 H         1 UNK         0.1079 
     72 H72       -82.1021   27.5519  -69.8194 H         1 UNK         0.0837 
     73 H73       -81.7263   28.3290  -71.3171 H         1 UNK         0.0837 
     74 H74       -79.8146   31.3318  -70.0805 H         1 UNK         0.0685 
     75 H75       -81.2898   30.7795  -70.8241 H         1 UNK         0.0685 
     76 H76       -81.2407   29.6338  -73.0131 H         1 UNK         0.1434 
     77 H77       -77.6008   29.7362  -75.2635 H         1 UNK         0.1329 
     78 H78       -77.5998   30.8934  -71.1342 H         1 UNK         0.1335 
     79 H79       -75.5854   31.1114  -72.3815 H         1 UNK         0.0680 
     80 H80       -75.4292   29.6719  -73.3700 H         1 UNK         0.0680 
     81 H81       -73.5174   32.0664  -73.3738 H         1 UNK         0.1032 
     82 H82       -73.5153   32.9490  -74.8594 H         1 UNK         0.1032 
     83 H83       -73.2089   30.6752  -76.0859 H         1 UNK         0.0461 
     84 H84       -70.2740   32.8642  -76.2329 H         1 UNK         0.3453 
     85 H85       -72.0006   33.0872  -76.3082 H         1 UNK         0.3453 
     86 H86       -73.1687   28.7993  -74.9252 H         1 UNK         0.2984 
     87 H87       -71.4992   27.7911  -72.1127 H         1 UNK         0.0554 
     88 H88       -73.2101   28.6231  -70.5824 H         1 UNK         0.0847 
     89 H89       -73.5621   26.9385  -70.9274 H         1 UNK         0.0847 
     90 H90       -74.4933   28.2221  -71.7078 H         1 UNK         0.0847 
     91 H91       -73.6164   27.0405  -74.1025 H         1 UNK         0.3141 
     92 H92       -71.9416   23.8478  -74.5058 H         1 UNK         0.0743 
     93 H93       -74.3081   23.1573  -74.5765 H         1 UNK         0.0784 
     94 H94       -73.8737   23.6113  -72.9353 H         1 UNK         0.0784 
     95 H95       -74.8180   24.7120  -73.9277 H         1 UNK         0.0784 
     96 H96       -73.8397   25.0258  -76.2084 H         1 UNK         0.3213 
     97 H97       -71.5807   26.5886  -78.4818 H         1 UNK         0.0855 
     98 H98       -73.2267   24.0047  -78.6096 H         1 UNK         0.0814 
     99 H99       -71.5511   24.2037  -79.0914 H         1 UNK         0.0814 
    100 H100      -72.8185   25.0193  -79.9930 H         1 UNK         0.0814 
    101 H101      -74.4754   26.1389  -78.0326 H         1 UNK         0.3105 
    102 H102      -75.0189   29.3704  -76.7764 H         1 UNK         0.0547 
    103 H103      -75.7289   28.5424  -79.6401 H         1 UNK         0.0837 
    104 H104      -74.8980   30.0220  -79.1798 H         1 UNK         0.0837 
    105 H105      -76.5591   29.7646  -78.6749 H         1 UNK         0.0837 
    106 H106      -76.8247   27.3752  -77.7343 H         1 UNK         0.3020 
    107 H107      -76.9225   25.4146  -74.7995 H         1 UNK         0.1245 
    108 H108      -78.4451   27.2232  -74.2421 H         1 UNK         0.0781 
    109 H109      -79.3240   25.9136  -74.9449 H         1 UNK         0.0781 
    110 H110      -80.5657   29.8427  -76.1045 H         1 UNK         0.0836 
    111 H111      -81.1868   28.5485  -75.1099 H         1 UNK         0.0836 
    112 H112      -78.4447   24.9821  -77.0065 H         1 UNK         0.3022 
    113 H113      -77.6791   23.7941  -79.0625 H         1 UNK         0.0747 
    114 H114      -75.3900   21.9268  -78.2329 H         1 UNK         0.0793 
    115 H115      -76.4200   21.7192  -79.6498 H         1 UNK         0.0793 
    116 H116      -75.3477   23.1034  -79.5394 H         1 UNK         0.0793 
    117 H117      -77.6142   21.5033  -77.2306 H         1 UNK         0.3047 
    118 H118      -80.7582   21.1365  -76.9804 H         1 UNK         0.0822 
    119 H119      -79.6990   19.8352  -75.1070 H         1 UNK         0.0807 
    120 H120      -78.3152   20.9193  -75.1318 H         1 UNK         0.0807 
    121 H121      -78.6771   19.9002  -76.5253 H         1 UNK         0.0807 
    122 H122      -81.8004   22.1803  -75.3437 H         1 UNK         0.2946 
    123 H123      -82.1185   24.1521  -73.9329 H         1 UNK         0.1144 
    124 H124      -82.8130   22.9521  -71.8262 H         1 UNK         0.0793 
    125 H125      -81.3318   21.9984  -71.8727 H         1 UNK         0.0793 
    126 H126      -82.5512   21.8051  -73.1248 H         1 UNK         0.0793 
    127 H127      -79.7522   24.4675  -72.2560 H         1 UNK         0.2896 
@<TRIPOS>BOND
     1    1    2 1    
     2    1   67 1    
     3    1   68 1    
     4    1   69 1    
     5    2    3 2    
     6    2    4 am   BACKBONE|DICT|INTERRES
     7    4    5 1    
     8    4   70 1    
     9    5    6 1    
    10    5   65 1    
    11    5   71 1    
    12    6    7 1    
    13    6   72 1    
    14    6   73 1    
    15    7    8 1    
    16    8    9 1    
    17    8   74 1    
    18    8   75 1    
    19    9   10 ar   
    20    9   14 ar   
    21   10   11 ar   
    22   10   76 1    
    23   11   12 ar   
    24   11   48 1    
    25   12   13 ar   
    26   12   77 1    
    27   13   14 ar   
    28   13   15 1    
    29   14   78 1    
    30   15   16 1    
    31   15   79 1    
    32   15   80 1    
    33   16   17 1    
    34   17   18 1    
    35   17   81 1    
    36   17   82 1    
    37   18   19 1    
    38   18   22 1    
    39   18   83 1    
    40   19   20 am   BACKBONE|DICT|INTERRES
    41   19   21 2    
    42   20   84 1    
    43   20   85 1    
    44   22   23 am   BACKBONE|DICT|INTERRES
    45   22   86 1    
    46   23   24 2    
    47   23   25 1    
    48   25   26 1    
    49   25   27 1    
    50   25   87 1    
    51   26   88 1    
    52   26   89 1    
    53   26   90 1    
    54   27   28 am   BACKBONE|DICT|INTERRES
    55   27   91 1    
    56   28   29 2    
    57   28   30 1    
    58   30   31 1    
    59   30   32 1    
    60   30   92 1    
    61   31   93 1    
    62   31   94 1    
    63   31   95 1    
    64   32   33 am   BACKBONE|DICT|INTERRES
    65   32   96 1    
    66   33   34 2    
    67   33   35 1    
    68   35   36 1    
    69   35   37 1    
    70   35   97 1    
    71   36   98 1    
    72   36   99 1    
    73   36  100 1    
    74   37   38 am   BACKBONE|DICT|INTERRES
    75   37  101 1    
    76   38   39 2    
    77   38   40 1    
    78   40   41 1    
    79   40   42 1    
    80   40  102 1    
    81   41  103 1    
    82   41  104 1    
    83   41  105 1    
    84   42   43 am   BACKBONE|DICT|INTERRES
    85   42  106 1    
    86   43   44 2    
    87   43   45 1    
    88   45   46 1    
    89   45   49 1    
    90   45  107 1    
    91   46   47 1    
    92   46  108 1    
    93   46  109 1    
    94   47   48 1    
    95   48  110 1    
    96   48  111 1    
    97   49   50 am   BACKBONE|DICT|INTERRES
    98   49  112 1    
    99   50   51 2    
   100   50   52 1    
   101   52   53 1    
   102   52   54 1    
   103   52  113 1    
   104   53  114 1    
   105   53  115 1    
   106   53  116 1    
   107   54   55 am   BACKBONE|DICT|INTERRES
   108   54  117 1    
   109   55   56 2    
   110   55   57 1    
   111   57   58 1    
   112   57   59 1    
   113   57  118 1    
   114   58  119 1    
   115   58  120 1    
   116   58  121 1    
   117   59   60 am   BACKBONE|DICT|INTERRES
   118   59  122 1    
   119   60   61 2    
   120   60   62 1    
   121   62   63 1    
   122   62   64 1    
   123   62  123 1    
   124   63  124 1    
   125   63  125 1    
   126   63  126 1    
   127   64   65 am   BACKBONE|DICT|INTERRES
   128   64  127 1    
   129   65   66 2    
@<TRIPOS>SUBSTRUCTURE
     1 UNK         1 GROUP             0       ****    0 ROOT    
