@<TRIPOS>MOLECULE
3R135
127   129    1
SMALL
USER_CHARGES


@<TRIPOS>ATOM
      1 CA        -85.3928   28.9104  -72.1506 C.3       0 UNK        -0.1998 
      2 C         -84.9386   28.5263  -73.5506 C.2       0 UNK         0.4909 
      3 O         -85.6887   27.8799  -74.2825 O.2       0 UNK        -0.5240 
      4 N         -83.7165   28.9224  -73.9292 N.am      1 UNK        -0.4739 
      5 CA        -83.0896   28.6176  -75.2224 C.3       1 UNK         0.0864 
      6 C6        -81.8729   29.5362  -75.5163 C.3       11 UNK        -0.0881 
      7 S7        -80.7104   29.7216  -74.1175 S.3       11 UNK        -0.2682 
      8 C8        -79.3708   28.5973  -74.6079 C.3       11 UNK         0.0289 
      9 C9        -78.3557   28.4486  -73.4869 C.ar      11 UNK        -0.0687 
     10 C10       -78.6433   27.6215  -72.3978 C.ar      11 UNK        -0.0823 
     11 C11       -77.7358   27.4918  -71.3422 C.ar      11 UNK        -0.0830 
     12 C12       -76.5237   28.1867  -71.3929 C.ar      11 UNK        -0.1021 
     13 C13       -76.2240   29.0185  -72.4774 C.ar      11 UNK        -0.0753 
     14 C14       -77.1441   29.1463  -73.5230 C.ar      11 UNK        -0.0933 
     15 C15       -74.9328   29.8225  -72.4823 C.3       11 UNK         0.0166 
     16 S16       -73.5236   28.8723  -73.1349 S.3       11 UNK        -0.2615 
     17 C17       -72.1535   29.8212  -72.3833 C.3       11 UNK        -0.0865 
     18 CA        -70.8311   29.8748  -73.1948 C.3       10 UNK         0.0862 
     19 C         -70.0564   28.5267  -73.2497 C.2       10 UNK         0.5551 
     20 N         -69.3658   28.2012  -74.3367 N.am      10 UNK        -0.7319 
     21 O         -70.0469   27.7751  -72.2780 O.2       10 UNK        -0.5018 
     22 N         -71.0038   30.5118  -74.5109 N.am      10 UNK        -0.4509 
     23 C         -70.3427   31.6034  -74.9212 C.2       10 UNK         0.4899 
     24 O         -69.6011   32.2660  -74.1931 O.2       10 UNK        -0.4839 
     25 CA        -70.5291   32.0285  -76.3944 C.3       9 UNK         0.0222 
     26 CB        -69.3804   32.9265  -76.9024 C.3       9 UNK        -0.1966 
     27 N         -70.7397   30.9056  -77.3167 N.am      9 UNK        -0.4218 
     28 C         -69.9443   29.8417  -77.5016 C.2       9 UNK         0.5020 
     29 O         -68.8864   29.6461  -76.8994 O.2       9 UNK        -0.5274 
     30 CA        -70.4582   28.7827  -78.4918 C.3       8 UNK         0.0270 
     31 CB        -69.3476   28.3401  -79.4607 C.3       8 UNK        -0.1976 
     32 N         -71.0067   27.6029  -77.8150 N.am      8 UNK        -0.4313 
     33 C         -71.9955   27.6065  -76.9112 C.2       8 UNK         0.5041 
     34 O         -72.5469   28.6292  -76.4902 O.2       8 UNK        -0.5577 
     35 CA        -72.4624   26.2368  -76.4061 C.3       7 UNK         0.0284 
     36 CB        -71.5085   25.6516  -75.3508 C.3       7 UNK        -0.1958 
     37 N         -73.7884   26.4117  -75.8309 N.am      7 UNK        -0.4454 
     38 C         -74.7356   25.4787  -75.7317 C.2       7 UNK         0.5089 
     39 O         -74.5922   24.3060  -76.0864 O.2       7 UNK        -0.5125 
     40 CA        -76.0933   25.9724  -75.2035 C.3       6 UNK         0.0408 
     41 CB        -77.0053   26.3282  -76.3884 C.3       6 UNK        -0.1791 
     42 N         -76.7858   25.0097  -74.3457 N.am      6 UNK        -0.4762 
     43 C         -76.2920   24.4430  -73.2339 C.2       6 UNK         0.5007 
     44 O         -75.1571   24.6463  -72.7991 O.2       6 UNK        -0.5032 
     45 CA        -77.2208   23.4633  -72.4869 C.3       5 UNK         0.0783 
     46 C46       -78.1605   24.1744  -71.4830 C.3       11 UNK        -0.0857 
     47 S47       -77.2880   25.0173  -70.1200 S.3       11 UNK        -0.2512 
     48 C48       -78.0904   26.6526  -70.1203 C.3       11 UNK         0.0225 
     49 N         -78.0020   22.6767  -73.4426 N.am      5 UNK        -0.4615 
     50 C         -77.6108   21.5138  -73.9785 C.2       4 UNK         0.5053 
     51 O         -76.5659   20.9380  -73.6745 O.2       4 UNK        -0.5105 
     52 CA        -78.5478   20.8678  -75.0169 C.3       4 UNK         0.0263 
     53 CB        -79.4418   19.8120  -74.3462 C.3       4 UNK        -0.1981 
     54 N         -79.3942   21.8415  -75.7115 N.am      4 UNK        -0.4224 
     55 C         -78.9584   22.6914  -76.6522 C.2       3 UNK         0.4895 
     56 O         -77.8149   22.6811  -77.1058 O.2       3 UNK        -0.5091 
     57 CA        -79.9588   23.7421  -77.1692 C.3       3 UNK         0.0250 
     58 CB        -80.5970   23.2714  -78.4860 C.3       3 UNK        -0.1996 
     59 N         -81.0204   24.1016  -76.2209 N.am      3 UNK        -0.4254 
     60 C         -80.8309   24.6539  -75.0149 C.2       2 UNK         0.5004 
     61 O         -79.7189   24.8654  -74.5273 O.2       2 UNK        -0.5226 
     62 CA        -82.0950   25.0132  -74.2138 C.3       2 UNK         0.0269 
     63 CB        -81.9558   24.5994  -72.7380 C.3       2 UNK        -0.1926 
     64 N         -82.4114   26.4422  -74.2798 N.am      2 UNK        -0.4687 
     65 C         -82.7421   27.1219  -75.3888 C.2       1 UNK         0.5165 
     66 O         -82.8121   26.6117  -76.5078 O.2       1 UNK        -0.5079 
     67 H67       -86.2989   29.5134  -72.2023 H         1 UNK         0.0900 
     68 H68       -84.6338   29.4841  -71.6188 H         1 UNK         0.0900 
     69 H69       -85.6112   28.0155  -71.5685 H         1 UNK         0.0900 
     70 H70       -83.1406   29.4566  -73.2925 H         1 UNK         0.2959 
     71 H71       -83.8371   28.8277  -75.9914 H         1 UNK         0.1079 
     72 H72       -81.3370   29.2117  -76.4109 H         1 UNK         0.0837 
     73 H73       -82.2400   30.5359  -75.7534 H         1 UNK         0.0837 
     74 H74       -79.7867   27.6200  -74.8527 H         1 UNK         0.0685 
     75 H75       -78.8940   28.9725  -75.5147 H         1 UNK         0.0685 
     76 H76       -79.5882   27.0974  -72.3681 H         1 UNK         0.1434 
     77 H77       -75.8201   28.0956  -70.5766 H         1 UNK         0.1329 
     78 H78       -76.9222   29.7973  -74.3574 H         1 UNK         0.1335 
     79 H79       -74.7147   30.1444  -71.4626 H         1 UNK         0.0680 
     80 H80       -75.0515   30.7338  -73.0707 H         1 UNK         0.0680 
     81 H81       -71.9693   29.4180  -71.3857 H         1 UNK         0.1032 
     82 H82       -72.4890   30.8462  -72.2183 H         1 UNK         0.1032 
     83 H83       -70.1661   30.4983  -72.5953 H         1 UNK         0.0461 
     84 H84       -69.3064   28.8279  -75.1320 H         1 UNK         0.3453 
     85 H85       -68.8491   27.3372  -74.3438 H         1 UNK         0.3453 
     86 H86       -71.5798   29.9989  -75.1720 H         1 UNK         0.2984 
     87 H87       -71.4459   32.6189  -76.4212 H         1 UNK         0.0554 
     88 H88       -69.2971   33.8357  -76.3056 H         1 UNK         0.0847 
     89 H89       -69.5436   33.2349  -77.9349 H         1 UNK         0.0847 
     90 H90       -68.4181   32.4155  -76.8532 H         1 UNK         0.0847 
     91 H91       -71.6238   30.9131  -77.8076 H         1 UNK         0.3141 
     92 H92       -71.2615   29.2230  -79.0863 H         1 UNK         0.0743 
     93 H93       -69.7314   27.6633  -80.2244 H         1 UNK         0.0784 
     94 H94       -68.5340   27.8331  -78.9400 H         1 UNK         0.0784 
     95 H95       -68.9170   29.1987  -79.9779 H         1 UNK         0.0784 
     96 H96       -70.5999   26.7158  -78.0746 H         1 UNK         0.3213 
     97 H97       -72.5253   25.5608  -77.2617 H         1 UNK         0.0855 
     98 H98       -71.5054   26.2522  -74.4412 H         1 UNK         0.0814 
     99 H99       -70.4838   25.6034  -75.7205 H         1 UNK         0.0814 
    100 H100      -71.8016   24.6387  -75.0743 H         1 UNK         0.0814 
    101 H101      -73.9845   27.3716  -75.5665 H         1 UNK         0.3105 
    102 H102      -75.9288   26.8673  -74.6019 H         1 UNK         0.0547 
    103 H103      -76.5959   27.1624  -76.9591 H         1 UNK         0.0837 
    104 H104      -77.1119   25.4863  -77.0735 H         1 UNK         0.0837 
    105 H105      -78.0022   26.6147  -76.0601 H         1 UNK         0.0837 
    106 H106      -77.7522   24.8138  -74.5845 H         1 UNK         0.3020 
    107 H107      -76.5787   22.7879  -71.9162 H         1 UNK         0.1245 
    108 H108      -78.8317   23.4433  -71.0299 H         1 UNK         0.0781 
    109 H109      -78.8052   24.8782  -72.0065 H         1 UNK         0.0781 
    110 H110      -77.7881   27.1877  -69.2188 H         1 UNK         0.0836 
    111 H111      -79.1711   26.5234  -70.0419 H         1 UNK         0.0836 
    112 H112      -78.8440   23.1186  -73.7899 H         1 UNK         0.3022 
    113 H113      -77.9217   20.3647  -75.7572 H         1 UNK         0.0747 
    114 H114      -80.0635   19.2953  -75.0777 H         1 UNK         0.0793 
    115 H115      -78.8393   19.0542  -73.8432 H         1 UNK         0.0793 
    116 H116      -80.0996   20.2547  -73.5971 H         1 UNK         0.0793 
    117 H117      -80.3586   21.9036  -75.4195 H         1 UNK         0.3047 
    118 H118      -79.3914   24.6516  -77.3748 H         1 UNK         0.0822 
    119 H119      -81.2275   24.0471  -78.9212 H         1 UNK         0.0807 
    120 H120      -81.2094   22.3802  -78.3425 H         1 UNK         0.0807 
    121 H121      -79.8328   23.0263  -79.2252 H         1 UNK         0.0807 
    122 H122      -81.9683   24.0017  -76.5565 H         1 UNK         0.2946 
    123 H123      -82.9389   24.4626  -74.6355 H         1 UNK         0.1144 
    124 H124      -82.8944   24.7336  -72.2000 H         1 UNK         0.0793 
    125 H125      -81.1915   25.1812  -72.2230 H         1 UNK         0.0793 
    126 H126      -81.6807   23.5475  -72.6486 H         1 UNK         0.0793 
    127 H127      -82.3775   26.9549  -73.4112 H         1 UNK         0.2896 
@<TRIPOS>BOND
     1    1    2 1    
     2    1   67 1    
     3    1   68 1    
     4    1   69 1    
     5    2    3 2    
     6    2    4 am   BACKBONE|DICT|INTERRES
     7    4    5 1    
     8    4   70 1    
     9    5    6 1    
    10    5   65 1    
    11    5   71 1    
    12    6    7 1    
    13    6   72 1    
    14    6   73 1    
    15    7    8 1    
    16    8    9 1    
    17    8   74 1    
    18    8   75 1    
    19    9   10 ar   
    20    9   14 ar   
    21   10   11 ar   
    22   10   76 1    
    23   11   12 ar   
    24   11   48 1    
    25   12   13 ar   
    26   12   77 1    
    27   13   14 ar   
    28   13   15 1    
    29   14   78 1    
    30   15   16 1    
    31   15   79 1    
    32   15   80 1    
    33   16   17 1    
    34   17   18 1    
    35   17   81 1    
    36   17   82 1    
    37   18   19 1    
    38   18   22 1    
    39   18   83 1    
    40   19   20 am   BACKBONE|DICT|INTERRES
    41   19   21 2    
    42   20   84 1    
    43   20   85 1    
    44   22   23 am   BACKBONE|DICT|INTERRES
    45   22   86 1    
    46   23   24 2    
    47   23   25 1    
    48   25   26 1    
    49   25   27 1    
    50   25   87 1    
    51   26   88 1    
    52   26   89 1    
    53   26   90 1    
    54   27   28 am   BACKBONE|DICT|INTERRES
    55   27   91 1    
    56   28   29 2    
    57   28   30 1    
    58   30   31 1    
    59   30   32 1    
    60   30   92 1    
    61   31   93 1    
    62   31   94 1    
    63   31   95 1    
    64   32   33 am   BACKBONE|DICT|INTERRES
    65   32   96 1    
    66   33   34 2    
    67   33   35 1    
    68   35   36 1    
    69   35   37 1    
    70   35   97 1    
    71   36   98 1    
    72   36   99 1    
    73   36  100 1    
    74   37   38 am   BACKBONE|DICT|INTERRES
    75   37  101 1    
    76   38   39 2    
    77   38   40 1    
    78   40   41 1    
    79   40   42 1    
    80   40  102 1    
    81   41  103 1    
    82   41  104 1    
    83   41  105 1    
    84   42   43 am   BACKBONE|DICT|INTERRES
    85   42  106 1    
    86   43   44 2    
    87   43   45 1    
    88   45   46 1    
    89   45   49 1    
    90   45  107 1    
    91   46   47 1    
    92   46  108 1    
    93   46  109 1    
    94   47   48 1    
    95   48  110 1    
    96   48  111 1    
    97   49   50 am   BACKBONE|DICT|INTERRES
    98   49  112 1    
    99   50   51 2    
   100   50   52 1    
   101   52   53 1    
   102   52   54 1    
   103   52  113 1    
   104   53  114 1    
   105   53  115 1    
   106   53  116 1    
   107   54   55 am   BACKBONE|DICT|INTERRES
   108   54  117 1    
   109   55   56 2    
   110   55   57 1    
   111   57   58 1    
   112   57   59 1    
   113   57  118 1    
   114   58  119 1    
   115   58  120 1    
   116   58  121 1    
   117   59   60 am   BACKBONE|DICT|INTERRES
   118   59  122 1    
   119   60   61 2    
   120   60   62 1    
   121   62   63 1    
   122   62   64 1    
   123   62  123 1    
   124   63  124 1    
   125   63  125 1    
   126   63  126 1    
   127   64   65 am   BACKBONE|DICT|INTERRES
   128   64  127 1    
   129   65   66 2    
@<TRIPOS>SUBSTRUCTURE
     1 UNK         1 GROUP             0       ****    0 ROOT    
