@<TRIPOS>MOLECULE
3R135
127   129    1
SMALL
USER_CHARGES


@<TRIPOS>ATOM
      1 CA        -78.0768   26.2337  -69.3269 C.3       0 UNK        -0.1998 
      2 C         -79.3931   25.7629  -69.9259 C.2       0 UNK         0.4909 
      3 O         -79.9553   24.7670  -69.4695 O.2       0 UNK        -0.5240 
      4 N         -79.8887   26.4634  -70.9549 N.am      1 UNK        -0.4739 
      5 CA        -81.1845   26.2336  -71.6116 C.3       1 UNK         0.0864 
      6 C6        -81.7351   27.5216  -72.2869 C.3       11 UNK        -0.0881 
      7 S7        -81.7843   28.9563  -71.1553 S.3       11 UNK        -0.2682 
      8 C8        -81.1877   30.3195  -72.2207 C.3       11 UNK         0.0289 
      9 C9        -79.8118   30.0981  -72.8514 C.ar      11 UNK        -0.0687 
     10 C10       -79.5541   30.6096  -74.1283 C.ar      11 UNK        -0.0823 
     11 C11       -78.3065   30.4406  -74.7390 C.ar      11 UNK        -0.0830 
     12 C12       -77.3194   29.7125  -74.0615 C.ar      11 UNK        -0.1021 
     13 C13       -77.5610   29.1895  -72.7899 C.ar      11 UNK        -0.0753 
     14 C14       -78.7959   29.4119  -72.1776 C.ar      11 UNK        -0.0933 
     15 C15       -76.4867   28.3794  -72.0856 C.3       11 UNK         0.0166 
     16 S16       -75.7047   29.3369  -70.7551 S.3       11 UNK        -0.2615 
     17 C17       -74.2413   28.3055  -70.4013 C.3       11 UNK        -0.0865 
     18 CA        -72.9608   28.8655  -71.0769 C.3       10 UNK         0.0862 
     19 C         -71.6797   28.1338  -70.5780 C.2       10 UNK         0.5551 
     20 N         -70.8185   27.6261  -71.4511 N.am      10 UNK        -0.7319 
     21 O         -71.4572   28.0348  -69.3739 O.2       10 UNK        -0.5018 
     22 N         -73.1042   28.9056  -72.5425 N.am      10 UNK        -0.4509 
     23 C         -72.5441   29.8077  -73.3539 C.2       10 UNK         0.4899 
     24 O         -71.8074   30.7177  -72.9715 O.2       10 UNK        -0.4839 
     25 CA        -72.8423   29.6225  -74.8510 C.3       9 UNK         0.0222 
     26 CB        -72.2545   30.7441  -75.7267 C.3       9 UNK        -0.1966 
     27 N         -72.3243   28.3311  -75.3080 N.am      9 UNK        -0.4218 
     28 C         -73.0125   27.1843  -75.3094 C.2       9 UNK         0.5020 
     29 O         -74.1951   27.0889  -74.9691 O.2       9 UNK        -0.5274 
     30 CA        -72.2404   25.9265  -75.7084 C.3       8 UNK         0.0270 
     31 CB        -71.7289   25.1922  -74.4536 C.3       8 UNK        -0.1976 
     32 N         -73.1276   25.0665  -76.4832 N.am      8 UNK        -0.4313 
     33 C         -72.7367   24.0510  -77.2628 C.2       8 UNK         0.5041 
     34 O         -71.5641   23.6986  -77.3991 O.2       8 UNK        -0.5577 
     35 CA        -73.8376   23.3116  -78.0351 C.3       7 UNK         0.0284 
     36 CB        -74.5741   22.3224  -77.1197 C.3       7 UNK        -0.1958 
     37 N         -74.7859   24.2545  -78.6337 N.am      7 UNK        -0.4454 
     38 C         -74.5813   24.8446  -79.8209 C.2       7 UNK         0.5089 
     39 O         -73.6165   24.6070  -80.5490 O.2       7 UNK        -0.5125 
     40 CA        -75.6201   25.8803  -80.2791 C.3       6 UNK         0.0408 
     41 CB        -76.8741   25.1837  -80.8311 C.3       6 UNK        -0.1791 
     42 N         -76.0106   26.8116  -79.2229 N.am      6 UNK        -0.4762 
     43 C         -75.2153   27.7008  -78.6133 C.2       6 UNK         0.5007 
     44 O         -74.0256   27.8478  -78.8935 O.2       6 UNK        -0.5032 
     45 CA        -75.8281   28.5636  -77.4867 C.3       5 UNK         0.0783 
     46 C46       -76.2043   29.9840  -77.9903 C.3       11 UNK        -0.0857 
     47 S47       -76.3323   31.2052  -76.6402 S.3       11 UNK        -0.2512 
     48 C48       -78.0813   31.0583  -76.1236 C.3       11 UNK         0.0225 
     49 N         -76.8979   27.8744  -76.7429 N.am      5 UNK        -0.4615 
     50 C         -78.1329   27.5742  -77.1703 C.2       4 UNK         0.5053 
     51 O         -78.5530   27.8912  -78.2835 O.2       4 UNK        -0.5105 
     52 CA        -79.0383   26.7454  -76.2366 C.3       4 UNK         0.0263 
     53 CB        -80.0826   25.9338  -77.0324 C.3       4 UNK        -0.1981 
     54 N         -78.3441   25.8507  -75.3008 N.am      4 UNK        -0.4224 
     55 C         -77.4173   24.9170  -75.5721 C.2       3 UNK         0.4895 
     56 O         -76.8548   24.7818  -76.6606 O.2       3 UNK        -0.5091 
     57 CA        -77.0694   23.9591  -74.4186 C.3       3 UNK         0.0250 
     58 CB        -75.9297   24.5286  -73.5599 C.3       3 UNK        -0.1996 
     59 N         -78.2242   23.6516  -73.5682 N.am      3 UNK        -0.4254 
     60 C         -79.2357   22.8469  -73.9319 C.2       2 UNK         0.5004 
     61 O         -79.2805   22.2422  -75.0035 O.2       2 UNK        -0.5226 
     62 CA        -80.3971   22.6899  -72.9339 C.3       2 UNK         0.0269 
     63 CB        -80.1487   21.4949  -71.9996 C.3       2 UNK        -0.1926 
     64 N         -80.6323   23.8923  -72.1294 N.am      2 UNK        -0.4687 
     65 C         -81.1087   25.0508  -72.6036 C.2       1 UNK         0.5165 
     66 O         -81.4381   25.2078  -73.7795 O.2       1 UNK        -0.5079 
     67 H67       -78.0590   26.0371  -68.2552 H         1 UNK         0.0900 
     68 H68       -77.2410   25.7040  -69.7830 H         1 UNK         0.0900 
     69 H69       -77.9317   27.3043  -69.4679 H         1 UNK         0.0900 
     70 H70       -79.3804   27.2631  -71.2998 H         1 UNK         0.2959 
     71 H71       -81.9045   25.9417  -70.8433 H         1 UNK         0.1079 
     72 H72       -81.1408   27.7724  -73.1671 H         1 UNK         0.0837 
     73 H73       -82.7497   27.3518  -72.6523 H         1 UNK         0.0837 
     74 H74       -81.9339   30.4864  -72.9992 H         1 UNK         0.0685 
     75 H75       -81.1522   31.2335  -71.6268 H         1 UNK         0.0685 
     76 H76       -80.3290   31.1574  -74.6478 H         1 UNK         0.1434 
     77 H77       -76.3525   29.5486  -74.5130 H         1 UNK         0.1329 
     78 H78       -78.9631   29.0528  -71.1729 H         1 UNK         0.1335 
     79 H79       -76.9188   27.4670  -71.6767 H         1 UNK         0.0680 
     80 H80       -75.7308   28.0597  -72.8033 H         1 UNK         0.0680 
     81 H81       -74.1219   28.2817  -69.3163 H         1 UNK         0.1032 
     82 H82       -74.4233   27.2729  -70.7047 H         1 UNK         0.1032 
     83 H83       -72.8463   29.8942  -70.7293 H         1 UNK         0.0461 
     84 H84       -70.9755   27.7339  -72.4385 H         1 UNK         0.3453 
     85 H85       -69.9903   27.1607  -71.1145 H         1 UNK         0.3453 
     86 H86       -73.6621   28.1735  -72.9604 H         1 UNK         0.2984 
     87 H87       -73.9270   29.6547  -74.9645 H         1 UNK         0.0554 
     88 H88       -72.6388   31.7181  -75.4208 H         1 UNK         0.0847 
     89 H89       -72.5232   30.6079  -76.7745 H         1 UNK         0.0847 
     90 H90       -71.1666   30.7859  -75.6605 H         1 UNK         0.0847 
     91 H91       -71.3495   28.3120  -75.5741 H         1 UNK         0.3141 
     92 H92       -71.3942   26.2118  -76.3372 H         1 UNK         0.0743 
     93 H93       -72.5485   24.8906  -73.8003 H         1 UNK         0.0784 
     94 H94       -71.1646   24.2969  -74.7143 H         1 UNK         0.0784 
     95 H95       -71.0634   25.8290  -73.8704 H         1 UNK         0.0784 
     96 H96       -74.1076   25.3154  -76.4323 H         1 UNK         0.3213 
     97 H97       -73.3621   22.7305  -78.8288 H         1 UNK         0.0855 
     98 H98       -74.9663   22.8138  -76.2320 H         1 UNK         0.0814 
     99 H99       -73.8992   21.5359  -76.7795 H         1 UNK         0.0814 
    100 H100      -75.4044   21.8398  -77.6354 H         1 UNK         0.0814 
    101 H101      -75.6044   24.5060  -78.0826 H         1 UNK         0.3105 
    102 H102      -75.1737   26.4657  -81.0856 H         1 UNK         0.0547 
    103 H103      -76.6148   24.4892  -81.6313 H         1 UNK         0.0837 
    104 H104      -77.3933   24.6140  -80.0591 H         1 UNK         0.0837 
    105 H105      -77.5787   25.9051  -81.2453 H         1 UNK         0.0837 
    106 H106      -76.9855   26.8061  -78.9441 H         1 UNK         0.3020 
    107 H107      -75.0176   28.6952  -76.7741 H         1 UNK         0.1245 
    108 H108      -77.1168   29.9816  -78.5867 H         1 UNK         0.0781 
    109 H109      -75.4273   30.3624  -78.6577 H         1 UNK         0.0781 
    110 H110      -78.6472   30.4915  -76.8630 H         1 UNK         0.0836 
    111 H111      -78.5040   32.0641  -76.1299 H         1 UNK         0.0836 
    112 H112      -76.6176   27.5150  -75.8408 H         1 UNK         0.3022 
    113 H113      -79.5757   27.4695  -75.6221 H         1 UNK         0.0747 
    114 H114      -80.7356   25.3663  -76.3697 H         1 UNK         0.0793 
    115 H115      -80.7222   26.5854  -77.6290 H         1 UNK         0.0793 
    116 H116      -79.6058   25.2277  -77.7134 H         1 UNK         0.0793 
    117 H117      -78.7129   25.8598  -74.3618 H         1 UNK         0.3047 
    118 H118      -76.7298   23.0202  -74.8579 H         1 UNK         0.0822 
    119 H119      -75.6611   23.8485  -72.7515 H         1 UNK         0.0807 
    120 H120      -76.1907   25.4907  -73.1192 H         1 UNK         0.0807 
    121 H121      -75.0332   24.6788  -74.1611 H         1 UNK         0.0807 
    122 H122      -78.2596   24.0813  -72.6560 H         1 UNK         0.2946 
    123 H123      -81.2997   22.4900  -73.5163 H         1 UNK         0.1144 
    124 H124      -81.0022   21.3203  -71.3442 H         1 UNK         0.0793 
    125 H125      -79.2696   21.6476  -71.3722 H         1 UNK         0.0793 
    126 H126      -79.9878   20.5794  -72.5708 H         1 UNK         0.0793 
    127 H127      -80.3781   23.8604  -71.1456 H         1 UNK         0.2896 
@<TRIPOS>BOND
     1    1    2 1    
     2    1   67 1    
     3    1   68 1    
     4    1   69 1    
     5    2    3 2    
     6    2    4 am   BACKBONE|DICT|INTERRES
     7    4    5 1    
     8    4   70 1    
     9    5    6 1    
    10    5   65 1    
    11    5   71 1    
    12    6    7 1    
    13    6   72 1    
    14    6   73 1    
    15    7    8 1    
    16    8    9 1    
    17    8   74 1    
    18    8   75 1    
    19    9   10 ar   
    20    9   14 ar   
    21   10   11 ar   
    22   10   76 1    
    23   11   12 ar   
    24   11   48 1    
    25   12   13 ar   
    26   12   77 1    
    27   13   14 ar   
    28   13   15 1    
    29   14   78 1    
    30   15   16 1    
    31   15   79 1    
    32   15   80 1    
    33   16   17 1    
    34   17   18 1    
    35   17   81 1    
    36   17   82 1    
    37   18   19 1    
    38   18   22 1    
    39   18   83 1    
    40   19   20 am   BACKBONE|DICT|INTERRES
    41   19   21 2    
    42   20   84 1    
    43   20   85 1    
    44   22   23 am   BACKBONE|DICT|INTERRES
    45   22   86 1    
    46   23   24 2    
    47   23   25 1    
    48   25   26 1    
    49   25   27 1    
    50   25   87 1    
    51   26   88 1    
    52   26   89 1    
    53   26   90 1    
    54   27   28 am   BACKBONE|DICT|INTERRES
    55   27   91 1    
    56   28   29 2    
    57   28   30 1    
    58   30   31 1    
    59   30   32 1    
    60   30   92 1    
    61   31   93 1    
    62   31   94 1    
    63   31   95 1    
    64   32   33 am   BACKBONE|DICT|INTERRES
    65   32   96 1    
    66   33   34 2    
    67   33   35 1    
    68   35   36 1    
    69   35   37 1    
    70   35   97 1    
    71   36   98 1    
    72   36   99 1    
    73   36  100 1    
    74   37   38 am   BACKBONE|DICT|INTERRES
    75   37  101 1    
    76   38   39 2    
    77   38   40 1    
    78   40   41 1    
    79   40   42 1    
    80   40  102 1    
    81   41  103 1    
    82   41  104 1    
    83   41  105 1    
    84   42   43 am   BACKBONE|DICT|INTERRES
    85   42  106 1    
    86   43   44 2    
    87   43   45 1    
    88   45   46 1    
    89   45   49 1    
    90   45  107 1    
    91   46   47 1    
    92   46  108 1    
    93   46  109 1    
    94   47   48 1    
    95   48  110 1    
    96   48  111 1    
    97   49   50 am   BACKBONE|DICT|INTERRES
    98   49  112 1    
    99   50   51 2    
   100   50   52 1    
   101   52   53 1    
   102   52   54 1    
   103   52  113 1    
   104   53  114 1    
   105   53  115 1    
   106   53  116 1    
   107   54   55 am   BACKBONE|DICT|INTERRES
   108   54  117 1    
   109   55   56 2    
   110   55   57 1    
   111   57   58 1    
   112   57   59 1    
   113   57  118 1    
   114   58  119 1    
   115   58  120 1    
   116   58  121 1    
   117   59   60 am   BACKBONE|DICT|INTERRES
   118   59  122 1    
   119   60   61 2    
   120   60   62 1    
   121   62   63 1    
   122   62   64 1    
   123   62  123 1    
   124   63  124 1    
   125   63  125 1    
   126   63  126 1    
   127   64   65 am   BACKBONE|DICT|INTERRES
   128   64  127 1    
   129   65   66 2    
@<TRIPOS>SUBSTRUCTURE
     1 UNK         1 GROUP             0       ****    0 ROOT    
