@<TRIPOS>MOLECULE
3R135
127   129    1
SMALL
USER_CHARGES


@<TRIPOS>ATOM
      1 CA        -74.7121   22.4373  -73.6702 C.3       0 UNK        -0.1998 
      2 C         -75.9346   22.6510  -72.7920 C.2       0 UNK         0.4909 
      3 O         -76.1366   21.9060  -71.8322 O.2       0 UNK        -0.5240 
      4 N         -76.7457   23.6671  -73.1086 N.am      1 UNK        -0.4739 
      5 CA        -78.0066   23.9643  -72.4247 C.3       1 UNK         0.0864 
      6 C6        -78.3528   25.4699  -72.5641 C.3       11 UNK        -0.0881 
      7 S7        -79.4990   26.0447  -71.2698 S.3       11 UNK        -0.2682 
      8 C8        -80.2351   27.5104  -72.0676 C.3       11 UNK         0.0289 
      9 C9        -79.2586   28.6591  -72.3159 C.ar      11 UNK        -0.0687 
     10 C10       -79.4261   29.4621  -73.4484 C.ar      11 UNK        -0.0823 
     11 C11       -78.5879   30.5575  -73.6766 C.ar      11 UNK        -0.0830 
     12 C12       -77.5713   30.8494  -72.7638 C.ar      11 UNK        -0.1021 
     13 C13       -77.3867   30.0551  -71.6297 C.ar      11 UNK        -0.0753 
     14 C14       -78.2351   28.9654  -71.4096 C.ar      11 UNK        -0.0933 
     15 C15       -76.2939   30.3890  -70.6245 C.3       11 UNK         0.0166 
     16 S16       -74.6511   29.8828  -71.2206 S.3       11 UNK        -0.2615 
     17 C17       -73.9566   31.4858  -71.7612 C.3       11 UNK        -0.0865 
     18 CA        -72.5632   31.3712  -72.4330 C.3       10 UNK         0.0862 
     19 C         -71.4550   30.9401  -71.4240 C.2       10 UNK         0.5551 
     20 N         -70.8249   29.7798  -71.5735 N.am      10 UNK        -0.7319 
     21 O         -71.1548   31.6846  -70.4937 O.2       10 UNK        -0.5018 
     22 N         -72.6304   30.5716  -73.6634 N.am      10 UNK        -0.4509 
     23 C         -71.7015   30.5612  -74.6280 C.2       10 UNK         0.4899 
     24 O         -70.7441   31.3361  -74.6597 O.2       10 UNK        -0.4839 
     25 CA        -71.8691   29.5054  -75.7406 C.3       9 UNK         0.0222 
     26 CB        -70.5229   29.0814  -76.3633 C.3       9 UNK        -0.1966 
     27 N         -72.6359   28.3224  -75.3291 N.am      9 UNK        -0.4218 
     28 C         -72.3603   27.4685  -74.3307 C.2       9 UNK         0.5020 
     29 O         -71.4035   27.5863  -73.5634 O.2       9 UNK        -0.5274 
     30 CA        -73.3353   26.2943  -74.1472 C.3       8 UNK         0.0270 
     31 CB        -74.5628   26.7342  -73.3361 C.3       8 UNK        -0.1976 
     32 N         -73.7665   25.7162  -75.4226 N.am      8 UNK        -0.4313 
     33 C         -72.9740   24.9862  -76.2222 C.2       8 UNK         0.5041 
     34 O         -71.8200   24.6640  -75.9381 O.2       8 UNK        -0.5577 
     35 CA        -73.5656   24.5409  -77.5684 C.3       7 UNK         0.0284 
     36 CB        -74.3865   23.2517  -77.4080 C.3       7 UNK        -0.1958 
     37 N         -74.3923   25.5877  -78.1705 N.am      7 UNK        -0.4454 
     38 C         -73.8969   26.6646  -78.7969 C.2       7 UNK         0.5089 
     39 O         -72.6967   26.8497  -78.9987 O.2       7 UNK        -0.5125 
     40 CA        -74.9076   27.7229  -79.2741 C.3       6 UNK         0.0408 
     41 CB        -75.3075   27.4616  -80.7347 C.3       6 UNK        -0.1791 
     42 N         -76.1159   27.8045  -78.4475 N.am      6 UNK        -0.4762 
     43 C         -76.1392   28.1995  -77.1653 C.2       6 UNK         0.5007 
     44 O         -75.1324   28.4980  -76.5251 O.2       6 UNK        -0.5032 
     45 CA        -77.5152   28.2021  -76.4689 C.3       5 UNK         0.0783 
     46 C46       -78.3469   29.4520  -76.8534 C.3       11 UNK        -0.0857 
     47 S47       -77.6452   31.0209  -76.2374 S.3       11 UNK        -0.2512 
     48 C48       -78.7930   31.4473  -74.8926 C.3       11 UNK         0.0225 
     49 N         -78.2679   26.9755  -76.7497 N.am      5 UNK        -0.4615 
     50 C         -77.8690   25.7214  -76.5061 C.2       4 UNK         0.5053 
     51 O         -76.8104   25.4307  -75.9404 O.2       4 UNK        -0.5105 
     52 CA        -78.8373   24.6234  -76.9823 C.3       4 UNK         0.0263 
     53 CB        -78.1659   23.2424  -77.0870 C.3       4 UNK        -0.1981 
     54 N         -80.0174   24.5543  -76.1120 N.am      4 UNK        -0.4224 
     55 C         -81.0604   25.3982  -76.1930 C.2       3 UNK         0.4895 
     56 O         -81.1256   26.2891  -77.0425 O.2       3 UNK        -0.5091 
     57 CA        -82.1985   25.3053  -75.1557 C.3       3 UNK         0.0250 
     58 CB        -83.5688   25.0709  -75.8256 C.3       3 UNK        -0.1996 
     59 N         -81.9542   24.3776  -74.0432 N.am      3 UNK        -0.4254 
     60 C         -82.0234   23.0374  -74.0271 C.2       2 UNK         0.5004 
     61 O         -82.3827   22.3447  -74.9798 O.2       2 UNK        -0.5226 
     62 CA        -81.5258   22.3774  -72.7213 C.3       2 UNK         0.0269 
     63 CB        -81.4057   20.8417  -72.8256 C.3       2 UNK        -0.1926 
     64 N         -80.2578   22.9734  -72.2634 N.am      2 UNK        -0.4687 
     65 C         -79.1311   23.0694  -72.9864 C.2       1 UNK         0.5165 
     66 O         -79.0011   22.5502  -74.0957 O.2       1 UNK        -0.5079 
     67 H67       -74.7995   21.4982  -74.2158 H         1 UNK         0.0900 
     68 H68       -74.5935   23.2419  -74.3922 H         1 UNK         0.0900 
     69 H69       -73.8104   22.3979  -73.0598 H         1 UNK         0.0900 
     70 H70       -76.5747   24.1996  -73.9525 H         1 UNK         0.2959 
     71 H71       -77.8839   23.7278  -71.3650 H         1 UNK         0.1079 
     72 H72       -77.4516   26.0755  -72.4619 H         1 UNK         0.0837 
     73 H73       -78.7516   25.6991  -73.5541 H         1 UNK         0.0837 
     74 H74       -80.6986   27.1981  -73.0038 H         1 UNK         0.0685 
     75 H75       -81.0414   27.8792  -71.4326 H         1 UNK         0.0685 
     76 H76       -80.2235   29.2453  -74.1460 H         1 UNK         0.1434 
     77 H77       -76.9274   31.7002  -72.9361 H         1 UNK         0.1329 
     78 H78       -78.1042   28.3632  -70.5214 H         1 UNK         0.1335 
     79 H79       -76.4860   29.8835  -69.6769 H         1 UNK         0.0680 
     80 H80       -76.3071   31.4570  -70.4024 H         1 UNK         0.0680 
     81 H81       -74.6531   31.9533  -72.4575 H         1 UNK         0.1032 
     82 H82       -73.9071   32.1558  -70.9005 H         1 UNK         0.1032 
     83 H83       -72.2878   32.3817  -72.7412 H         1 UNK         0.0461 
     84 H84       -71.0702   29.1453  -72.3262 H         1 UNK         0.3453 
     85 H85       -70.1083   29.5207  -70.9149 H         1 UNK         0.3453 
     86 H86       -73.3763   29.8931  -73.7049 H         1 UNK         0.2984 
     87 H87       -72.4590   29.9843  -76.5233 H         1 UNK         0.0554 
     88 H88       -70.0044   29.9351  -76.8012 H         1 UNK         0.0847 
     89 H89       -70.6690   28.3504  -77.1590 H         1 UNK         0.0847 
     90 H90       -69.8564   28.6407  -75.6211 H         1 UNK         0.0847 
     91 H91       -73.5104   28.1897  -75.8375 H         1 UNK         0.3141 
     92 H92       -72.8163   25.5185  -73.5800 H         1 UNK         0.0743 
     93 H93       -74.2624   27.1535  -72.3755 H         1 UNK         0.0784 
     94 H94       -75.1527   27.4905  -73.8557 H         1 UNK         0.0784 
     95 H95       -75.2114   25.8887  -73.1227 H         1 UNK         0.0784 
     96 H96       -74.7181   25.9032  -75.7184 H         1 UNK         0.3213 
     97 H97       -72.7329   24.3252  -78.2421 H         1 UNK         0.0855 
     98 H98       -75.2327   23.3901  -76.7364 H         1 UNK         0.0814 
     99 H99       -73.7728   22.4498  -76.9952 H         1 UNK         0.0814 
    100 H100      -74.7708   22.9033  -78.3667 H         1 UNK         0.0814 
    101 H101      -75.3898   25.5295  -78.0264 H         1 UNK         0.3105 
    102 H102      -74.4090   28.6935  -79.2270 H         1 UNK         0.0547 
    103 H103      -75.9509   28.2533  -81.1190 H         1 UNK         0.0837 
    104 H104      -74.4276   27.4224  -81.3785 H         1 UNK         0.0837 
    105 H105      -75.8349   26.5135  -80.8474 H         1 UNK         0.0837 
    106 H106      -76.9903   27.5631  -78.8917 H         1 UNK         0.3020 
    107 H107      -77.3330   28.2243  -75.3916 H         1 UNK         0.1245 
    108 H108      -79.3642   29.3514  -76.4730 H         1 UNK         0.0781 
    109 H109      -78.4520   29.5285  -77.9373 H         1 UNK         0.0781 
    110 H110      -79.8225   31.3914  -75.2498 H         1 UNK         0.0836 
    111 H111      -78.6301   32.4888  -74.6114 H         1 UNK         0.0836 
    112 H112      -79.1893   27.0931  -77.1570 H         1 UNK         0.3022 
    113 H113      -79.1655   24.8860  -77.9906 H         1 UNK         0.0747 
    114 H114      -78.8915   22.4623  -77.3172 H         1 UNK         0.0793 
    115 H115      -77.4242   23.2379  -77.8859 H         1 UNK         0.0793 
    116 H116      -77.6498   22.9586  -76.1706 H         1 UNK         0.0793 
    117 H117      -79.9990   23.8401  -75.3921 H         1 UNK         0.3047 
    118 H118      -82.2440   26.2924  -74.6937 H         1 UNK         0.0822 
    119 H119      -83.5897   24.1471  -76.4041 H         1 UNK         0.0807 
    120 H120      -83.8078   25.8825  -76.5141 H         1 UNK         0.0807 
    121 H121      -84.3708   25.0266  -75.0888 H         1 UNK         0.0807 
    122 H122      -81.6294   24.8177  -73.1932 H         1 UNK         0.2946 
    123 H123      -82.2768   22.5989  -71.9608 H         1 UNK         0.1144 
    124 H124      -81.0684   20.4059  -71.8853 H         1 UNK         0.0793 
    125 H125      -80.7058   20.5390  -73.6051 H         1 UNK         0.0793 
    126 H126      -82.3699   20.3909  -73.0638 H         1 UNK         0.0793 
    127 H127      -80.2917   23.4510  -71.3718 H         1 UNK         0.2896 
@<TRIPOS>BOND
     1    1    2 1    
     2    1   67 1    
     3    1   68 1    
     4    1   69 1    
     5    2    3 2    
     6    2    4 am   BACKBONE|DICT|INTERRES
     7    4    5 1    
     8    4   70 1    
     9    5    6 1    
    10    5   65 1    
    11    5   71 1    
    12    6    7 1    
    13    6   72 1    
    14    6   73 1    
    15    7    8 1    
    16    8    9 1    
    17    8   74 1    
    18    8   75 1    
    19    9   10 ar   
    20    9   14 ar   
    21   10   11 ar   
    22   10   76 1    
    23   11   12 ar   
    24   11   48 1    
    25   12   13 ar   
    26   12   77 1    
    27   13   14 ar   
    28   13   15 1    
    29   14   78 1    
    30   15   16 1    
    31   15   79 1    
    32   15   80 1    
    33   16   17 1    
    34   17   18 1    
    35   17   81 1    
    36   17   82 1    
    37   18   19 1    
    38   18   22 1    
    39   18   83 1    
    40   19   20 am   BACKBONE|DICT|INTERRES
    41   19   21 2    
    42   20   84 1    
    43   20   85 1    
    44   22   23 am   BACKBONE|DICT|INTERRES
    45   22   86 1    
    46   23   24 2    
    47   23   25 1    
    48   25   26 1    
    49   25   27 1    
    50   25   87 1    
    51   26   88 1    
    52   26   89 1    
    53   26   90 1    
    54   27   28 am   BACKBONE|DICT|INTERRES
    55   27   91 1    
    56   28   29 2    
    57   28   30 1    
    58   30   31 1    
    59   30   32 1    
    60   30   92 1    
    61   31   93 1    
    62   31   94 1    
    63   31   95 1    
    64   32   33 am   BACKBONE|DICT|INTERRES
    65   32   96 1    
    66   33   34 2    
    67   33   35 1    
    68   35   36 1    
    69   35   37 1    
    70   35   97 1    
    71   36   98 1    
    72   36   99 1    
    73   36  100 1    
    74   37   38 am   BACKBONE|DICT|INTERRES
    75   37  101 1    
    76   38   39 2    
    77   38   40 1    
    78   40   41 1    
    79   40   42 1    
    80   40  102 1    
    81   41  103 1    
    82   41  104 1    
    83   41  105 1    
    84   42   43 am   BACKBONE|DICT|INTERRES
    85   42  106 1    
    86   43   44 2    
    87   43   45 1    
    88   45   46 1    
    89   45   49 1    
    90   45  107 1    
    91   46   47 1    
    92   46  108 1    
    93   46  109 1    
    94   47   48 1    
    95   48  110 1    
    96   48  111 1    
    97   49   50 am   BACKBONE|DICT|INTERRES
    98   49  112 1    
    99   50   51 2    
   100   50   52 1    
   101   52   53 1    
   102   52   54 1    
   103   52  113 1    
   104   53  114 1    
   105   53  115 1    
   106   53  116 1    
   107   54   55 am   BACKBONE|DICT|INTERRES
   108   54  117 1    
   109   55   56 2    
   110   55   57 1    
   111   57   58 1    
   112   57   59 1    
   113   57  118 1    
   114   58  119 1    
   115   58  120 1    
   116   58  121 1    
   117   59   60 am   BACKBONE|DICT|INTERRES
   118   59  122 1    
   119   60   61 2    
   120   60   62 1    
   121   62   63 1    
   122   62   64 1    
   123   62  123 1    
   124   63  124 1    
   125   63  125 1    
   126   63  126 1    
   127   64   65 am   BACKBONE|DICT|INTERRES
   128   64  127 1    
   129   65   66 2    
@<TRIPOS>SUBSTRUCTURE
     1 UNK         1 GROUP             0       ****    0 ROOT    
