@<TRIPOS>MOLECULE
3R135
127   129    1
SMALL
USER_CHARGES


@<TRIPOS>ATOM
      1 CA        -80.9081   25.2920  -69.9747 C.3       0 UNK        -0.1998 
      2 C         -82.0483   25.6716  -70.9065 C.2       0 UNK         0.4909 
      3 O         -83.0744   24.9915  -70.9264 O.2       0 UNK        -0.5240 
      4 N         -81.8804   26.7579  -71.6724 N.am      1 UNK        -0.4739 
      5 CA        -82.8569   27.2530  -72.6518 C.3       1 UNK         0.0864 
      6 C6        -82.5840   28.7267  -73.0534 C.3       11 UNK        -0.0881 
      7 S7        -80.8990   29.0140  -73.7009 S.3       11 UNK        -0.2682 
      8 C8        -80.0876   29.8204  -72.2849 C.3       11 UNK         0.0289 
      9 C9        -78.6011   29.5108  -72.2954 C.ar      11 UNK        -0.0687 
     10 C10       -78.1157   28.3983  -71.6019 C.ar      11 UNK        -0.0823 
     11 C11       -76.7642   28.0459  -71.6755 C.ar      11 UNK        -0.0830 
     12 C12       -75.8924   28.8533  -72.4127 C.ar      11 UNK        -0.1021 
     13 C13       -76.3585   29.9881  -73.0830 C.ar      11 UNK        -0.0753 
     14 C14       -77.7170   30.3102  -73.0257 C.ar      11 UNK        -0.0933 
     15 C15       -75.3945   30.8412  -73.8925 C.3       11 UNK         0.0166 
     16 S16       -74.4386   31.9447  -72.8088 S.3       11 UNK        -0.2615 
     17 C17       -73.3610   32.8285  -73.9949 C.3       11 UNK        -0.0865 
     18 CA        -72.4978   31.9286  -74.9252 C.3       10 UNK         0.0862 
     19 C         -71.5149   32.7953  -75.7667 C.2       10 UNK         0.5551 
     20 N         -70.2041   32.6515  -75.6161 N.am      10 UNK        -0.7319 
     21 O         -71.9545   33.6149  -76.5694 O.2       10 UNK        -0.5018 
     22 N         -71.8894   30.8055  -74.1919 N.am      10 UNK        -0.4509 
     23 C         -71.3927   29.6951  -74.7502 C.2       10 UNK         0.4899 
     24 O         -71.2734   29.5331  -75.9651 O.2       10 UNK        -0.4839 
     25 CA        -70.9587   28.5670  -73.8017 C.3       9 UNK         0.0222 
     26 CB        -71.4127   28.7489  -72.3350 C.3       9 UNK        -0.1966 
     27 N         -71.4594   27.2998  -74.3301 N.am      9 UNK        -0.4218 
     28 C         -70.9020   26.1007  -74.1237 C.2       9 UNK         0.5020 
     29 O         -69.8862   25.9311  -73.4468 O.2       9 UNK        -0.5274 
     30 CA        -71.5791   24.8727  -74.7585 C.3       8 UNK         0.0270 
     31 CB        -72.2198   23.9882  -73.6747 C.3       8 UNK        -0.1976 
     32 N         -72.5908   25.2184  -75.7625 N.am      8 UNK        -0.4313 
     33 C         -72.3177   25.4527  -77.0544 C.2       8 UNK         0.5041 
     34 O         -71.1767   25.4277  -77.5184 O.2       8 UNK        -0.5577 
     35 CA        -73.4940   25.7377  -78.0083 C.3       7 UNK         0.0284 
     36 CB        -73.7928   24.4966  -78.8655 C.3       7 UNK        -0.1958 
     37 N         -74.7256   26.1572  -77.3371 N.am      7 UNK        -0.4454 
     38 C         -74.9106   27.3520  -76.7613 C.2       7 UNK         0.5089 
     39 O         -74.0674   28.2466  -76.7532 O.2       7 UNK        -0.5125 
     40 CA        -76.2443   27.5711  -76.0280 C.3       6 UNK         0.0408 
     41 CB        -77.3359   28.0376  -77.0009 C.3       6 UNK        -0.1791 
     42 N         -76.7135   26.4028  -75.2779 N.am      6 UNK        -0.4762 
     43 C         -76.0190   25.7743  -74.3160 C.2       6 UNK         0.5007 
     44 O         -74.8579   26.0493  -74.0147 O.2       6 UNK        -0.5032 
     45 CA        -76.7376   24.6167  -73.6036 C.3       5 UNK         0.0783 
     46 C46       -77.8570   25.1344  -72.6611 C.3       11 UNK        -0.0857 
     47 S47       -77.3264   25.3568  -70.9281 S.3       11 UNK        -0.2512 
     48 C48       -76.2134   26.8102  -70.9645 C.3       11 UNK         0.0225 
     49 N         -77.2531   23.6875  -74.6087 N.am      5 UNK        -0.4615 
     50 C         -76.5050   22.7854  -75.2585 C.2       4 UNK         0.5053 
     51 O         -75.3279   22.5511  -74.9877 O.2       4 UNK        -0.5105 
     52 CA        -77.1715   22.0262  -76.4205 C.3       4 UNK         0.0263 
     53 CB        -77.7478   20.6893  -75.9274 C.3       4 UNK        -0.1981 
     54 N         -78.2286   22.7921  -77.0869 N.am      4 UNK        -0.4224 
     55 C         -78.0335   23.9274  -77.7736 C.2       3 UNK         0.4895 
     56 O         -76.9282   24.4318  -77.9658 O.2       3 UNK        -0.5091 
     57 CA        -79.2896   24.6510  -78.2877 C.3       3 UNK         0.0250 
     58 CB        -79.6667   24.1414  -79.6876 C.3       3 UNK        -0.1996 
     59 N         -80.4500   24.5421  -77.3952 N.am      3 UNK        -0.4254 
     60 C         -80.4854   24.9479  -76.1179 C.2       2 UNK         0.5004 
     61 O         -79.5171   25.4223  -75.5152 O.2       2 UNK        -0.5226 
     62 CA        -81.8072   24.7247  -75.3777 C.3       2 UNK         0.0269 
     63 CB        -81.8902   23.2832  -74.8462 C.3       2 UNK        -0.1926 
     64 N         -81.8924   25.6504  -74.2529 N.am      2 UNK        -0.4687 
     65 C         -82.9858   26.3299  -73.8845 C.2       1 UNK         0.5165 
     66 O         -84.0715   26.2406  -74.4607 O.2       1 UNK        -0.5079 
     67 H67       -80.1756   26.0926  -69.8806 H         1 UNK         0.0900 
     68 H68       -81.2923   25.0722  -68.9791 H         1 UNK         0.0900 
     69 H69       -80.3987   24.4037  -70.3473 H         1 UNK         0.0900 
     70 H70       -81.0155   27.2751  -71.6303 H         1 UNK         0.2959 
     71 H71       -83.8350   27.2328  -72.1651 H         1 UNK         0.1079 
     72 H72       -82.7571   29.3776  -72.1951 H         1 UNK         0.0837 
     73 H73       -83.3018   29.0550  -73.8077 H         1 UNK         0.0837 
     74 H74       -80.2565   30.8972  -72.3338 H         1 UNK         0.0685 
     75 H75       -80.5289   29.4801  -71.3470 H         1 UNK         0.0685 
     76 H76       -78.7970   27.7872  -71.0288 H         1 UNK         0.1434 
     77 H77       -74.8452   28.5930  -72.4769 H         1 UNK         0.1329 
     78 H78       -78.0905   31.1715  -73.5624 H         1 UNK         0.1335 
     79 H79       -74.7177   30.1872  -74.4435 H         1 UNK         0.0680 
     80 H80       -75.9312   31.4336  -74.6350 H         1 UNK         0.0680 
     81 H81       -73.9887   33.4914  -74.5937 H         1 UNK         0.1032 
     82 H82       -72.7153   33.4846  -73.4077 H         1 UNK         0.1032 
     83 H83       -73.1737   31.4829  -75.6574 H         1 UNK         0.0461 
     84 H84       -69.8392   31.9747  -74.9655 H         1 UNK         0.3453 
     85 H85       -69.5762   33.2158  -76.1666 H         1 UNK         0.3453 
     86 H86       -71.9463   30.8609  -73.1858 H         1 UNK         0.2984 
     87 H87       -69.8672   28.5518  -73.8261 H         1 UNK         0.0554 
     88 H88       -71.0909   27.9114  -71.7158 H         1 UNK         0.0847 
     89 H89       -72.4974   28.8190  -72.2515 H         1 UNK         0.0847 
     90 H90       -70.9813   29.6466  -71.8907 H         1 UNK         0.0847 
     91 H91       -72.2556   27.3673  -74.9522 H         1 UNK         0.3141 
     92 H92       -70.7935   24.2851  -75.2386 H         1 UNK         0.0743 
     93 H93       -72.9651   24.5306  -73.0932 H         1 UNK         0.0784 
     94 H94       -72.7037   23.1132  -74.1092 H         1 UNK         0.0784 
     95 H95       -71.4665   23.6261  -72.9738 H         1 UNK         0.0784 
     96 H96       -73.5443   25.3126  -75.4277 H         1 UNK         0.3213 
     97 H97       -73.1808   26.5446  -78.6744 H         1 UNK         0.0855 
     98 H98       -74.1317   23.6588  -78.2543 H         1 UNK         0.0814 
     99 H99       -72.9042   24.1692  -79.4070 H         1 UNK         0.0814 
    100 H100      -74.5653   24.7030  -79.6066 H         1 UNK         0.0814 
    101 H101      -75.5019   25.4980  -77.3505 H         1 UNK         0.3105 
    102 H102      -76.0873   28.3660  -75.3010 H         1 UNK         0.0547 
    103 H103      -77.0532   28.9770  -77.4776 H         1 UNK         0.0837 
    104 H104      -77.5026   27.3099  -77.7940 H         1 UNK         0.0837 
    105 H105      -78.2834   28.2055  -76.4878 H         1 UNK         0.0837 
    106 H106      -77.6675   26.1000  -75.4553 H         1 UNK         0.3020 
    107 H107      -75.9940   24.0837  -73.0058 H         1 UNK         0.1245 
    108 H108      -78.6662   24.4032  -72.6212 H         1 UNK         0.0781 
    109 H109      -78.3298   26.0452  -73.0325 H         1 UNK         0.0781 
    110 H110      -75.2686   26.5031  -71.4150 H         1 UNK         0.0836 
    111 H111      -75.9775   27.0857  -69.9360 H         1 UNK         0.0836 
    112 H112      -78.1919   23.8721  -74.9387 H         1 UNK         0.3022 
    113 H113      -76.3959   21.8151  -77.1600 H         1 UNK         0.0747 
    114 H114      -78.1492   20.1009  -76.7527 H         1 UNK         0.0793 
    115 H115      -76.9759   20.0858  -75.4475 H         1 UNK         0.0793 
    116 H116      -78.5460   20.8368  -75.1986 H         1 UNK         0.0793 
    117 H117      -79.1732   22.4510  -76.9864 H         1 UNK         0.3047 
    118 H118      -79.0459   25.7108  -78.3699 H         1 UNK         0.0822 
    119 H119      -80.4906   24.7160  -80.1114 H         1 UNK         0.0807 
    120 H120      -79.9615   23.0914  -79.6715 H         1 UNK         0.0807 
    121 H121      -78.8246   24.2328  -80.3754 H         1 UNK         0.0807 
    122 H122      -81.2872   24.1476  -77.8002 H         1 UNK         0.2946 
    123 H123      -82.6265   24.9062  -76.0775 H         1 UNK         0.1144 
    124 H124      -82.8262   23.1134  -74.3136 H         1 UNK         0.0793 
    125 H125      -81.0724   23.0585  -74.1599 H         1 UNK         0.0793 
    126 H126      -81.8460   22.5575  -75.6592 H         1 UNK         0.0793 
    127 H127      -81.0151   25.8480  -73.7908 H         1 UNK         0.2896 
@<TRIPOS>BOND
     1    1    2 1    
     2    1   67 1    
     3    1   68 1    
     4    1   69 1    
     5    2    3 2    
     6    2    4 am   BACKBONE|DICT|INTERRES
     7    4    5 1    
     8    4   70 1    
     9    5    6 1    
    10    5   65 1    
    11    5   71 1    
    12    6    7 1    
    13    6   72 1    
    14    6   73 1    
    15    7    8 1    
    16    8    9 1    
    17    8   74 1    
    18    8   75 1    
    19    9   10 ar   
    20    9   14 ar   
    21   10   11 ar   
    22   10   76 1    
    23   11   12 ar   
    24   11   48 1    
    25   12   13 ar   
    26   12   77 1    
    27   13   14 ar   
    28   13   15 1    
    29   14   78 1    
    30   15   16 1    
    31   15   79 1    
    32   15   80 1    
    33   16   17 1    
    34   17   18 1    
    35   17   81 1    
    36   17   82 1    
    37   18   19 1    
    38   18   22 1    
    39   18   83 1    
    40   19   20 am   BACKBONE|DICT|INTERRES
    41   19   21 2    
    42   20   84 1    
    43   20   85 1    
    44   22   23 am   BACKBONE|DICT|INTERRES
    45   22   86 1    
    46   23   24 2    
    47   23   25 1    
    48   25   26 1    
    49   25   27 1    
    50   25   87 1    
    51   26   88 1    
    52   26   89 1    
    53   26   90 1    
    54   27   28 am   BACKBONE|DICT|INTERRES
    55   27   91 1    
    56   28   29 2    
    57   28   30 1    
    58   30   31 1    
    59   30   32 1    
    60   30   92 1    
    61   31   93 1    
    62   31   94 1    
    63   31   95 1    
    64   32   33 am   BACKBONE|DICT|INTERRES
    65   32   96 1    
    66   33   34 2    
    67   33   35 1    
    68   35   36 1    
    69   35   37 1    
    70   35   97 1    
    71   36   98 1    
    72   36   99 1    
    73   36  100 1    
    74   37   38 am   BACKBONE|DICT|INTERRES
    75   37  101 1    
    76   38   39 2    
    77   38   40 1    
    78   40   41 1    
    79   40   42 1    
    80   40  102 1    
    81   41  103 1    
    82   41  104 1    
    83   41  105 1    
    84   42   43 am   BACKBONE|DICT|INTERRES
    85   42  106 1    
    86   43   44 2    
    87   43   45 1    
    88   45   46 1    
    89   45   49 1    
    90   45  107 1    
    91   46   47 1    
    92   46  108 1    
    93   46  109 1    
    94   47   48 1    
    95   48  110 1    
    96   48  111 1    
    97   49   50 am   BACKBONE|DICT|INTERRES
    98   49  112 1    
    99   50   51 2    
   100   50   52 1    
   101   52   53 1    
   102   52   54 1    
   103   52  113 1    
   104   53  114 1    
   105   53  115 1    
   106   53  116 1    
   107   54   55 am   BACKBONE|DICT|INTERRES
   108   54  117 1    
   109   55   56 2    
   110   55   57 1    
   111   57   58 1    
   112   57   59 1    
   113   57  118 1    
   114   58  119 1    
   115   58  120 1    
   116   58  121 1    
   117   59   60 am   BACKBONE|DICT|INTERRES
   118   59  122 1    
   119   60   61 2    
   120   60   62 1    
   121   62   63 1    
   122   62   64 1    
   123   62  123 1    
   124   63  124 1    
   125   63  125 1    
   126   63  126 1    
   127   64   65 am   BACKBONE|DICT|INTERRES
   128   64  127 1    
   129   65   66 2    
@<TRIPOS>SUBSTRUCTURE
     1 UNK         1 GROUP             0       ****    0 ROOT    
