@<TRIPOS>MOLECULE
3R135
127   129    1
SMALL
USER_CHARGES


@<TRIPOS>ATOM
      1 CA        -84.4996   26.3356  -71.3143 C.3       0 UNK        -0.1998 
      2 C         -84.2999   26.6611  -72.7870 C.2       0 UNK         0.4909 
      3 O         -84.8438   25.9682  -73.6477 O.2       0 UNK        -0.5240 
      4 N         -83.5331   27.7170  -73.0822 N.am      1 UNK        -0.4739 
      5 CA        -83.1420   28.1237  -74.4344 C.3       1 UNK         0.0864 
      6 C6        -82.6214   29.5900  -74.4780 C.3       11 UNK        -0.0881 
      7 S7        -81.4582   30.0392  -73.1361 S.3       11 UNK        -0.2682 
      8 C8        -79.8446   29.8550  -73.9585 C.3       11 UNK         0.0289 
      9 C9        -78.7475   29.5518  -72.9476 C.ar      11 UNK        -0.0687 
     10 C10       -78.7099   28.3088  -72.3071 C.ar      11 UNK        -0.0823 
     11 C11       -77.7266   28.0271  -71.3538 C.ar      11 UNK        -0.0830 
     12 C12       -76.7635   28.9944  -71.0543 C.ar      11 UNK        -0.1021 
     13 C13       -76.7835   30.2367  -71.6959 C.ar      11 UNK        -0.0753 
     14 C14       -77.7776   30.5104  -72.6410 C.ar      11 UNK        -0.0933 
     15 C15       -75.7505   31.2975  -71.3482 C.3       11 UNK         0.0166 
     16 S16       -74.3386   31.2623  -72.4923 S.3       11 UNK        -0.2615 
     17 C17       -73.4452   29.7803  -71.9100 C.3       11 UNK        -0.0865 
     18 CA        -72.0690   29.6173  -72.6081 C.3       10 UNK         0.0862 
     19 C         -71.2037   28.4940  -71.9646 C.2       10 UNK         0.5551 
     20 N         -70.4574   27.7056  -72.7306 N.am      10 UNK        -0.7319 
     21 O         -71.1905   28.3424  -70.7454 O.2       10 UNK        -0.5018 
     22 N         -72.2343   29.4348  -74.0563 N.am      10 UNK        -0.4509 
     23 C         -71.6220   30.1435  -75.0098 C.2       10 UNK         0.4899 
     24 O         -70.8652   31.0906  -74.7874 O.2       10 UNK        -0.4839 
     25 CA        -71.8991   29.6986  -76.4593 C.3       9 UNK         0.0222 
     26 CB        -70.9398   30.3428  -77.4826 C.3       9 UNK        -0.1966 
     27 N         -71.9203   28.2383  -76.6186 N.am      9 UNK        -0.4218 
     28 C         -70.9301   27.3754  -76.3351 C.2       9 UNK         0.5020 
     29 O         -69.8448   27.7220  -75.8659 O.2       9 UNK        -0.5274 
     30 CA        -71.1756   25.8706  -76.5716 C.3       8 UNK         0.0270 
     31 CB        -70.9160   25.0712  -75.2823 C.3       8 UNK        -0.1976 
     32 N         -72.5195   25.5531  -77.0595 N.am      8 UNK        -0.4313 
     33 C         -72.9554   25.7266  -78.3139 C.2       8 UNK         0.5041 
     34 O         -72.2417   26.1112  -79.2405 O.2       8 UNK        -0.5577 
     35 CA        -74.4553   25.4839  -78.5618 C.3       7 UNK         0.0284 
     36 CB        -74.7280   23.9995  -78.8495 C.3       7 UNK        -0.1958 
     37 N         -75.3001   25.9337  -77.4494 N.am      7 UNK        -0.4454 
     38 C         -75.3986   27.2025  -77.0236 C.2       7 UNK         0.5089 
     39 O         -74.8027   28.1475  -77.5395 O.2       7 UNK        -0.5125 
     40 CA        -76.2667   27.4467  -75.7796 C.3       6 UNK         0.0408 
     41 CB        -77.7589   27.4574  -76.1454 C.3       6 UNK        -0.1791 
     42 N         -76.0177   26.4381  -74.7504 N.am      6 UNK        -0.4762 
     43 C         -74.8884   26.3491  -74.0343 C.2       6 UNK         0.5007 
     44 O         -73.9424   27.1293  -74.1495 O.2       6 UNK        -0.5032 
     45 CA        -74.7755   25.1580  -73.0614 C.3       5 UNK         0.0783 
     46 C46       -75.4128   25.4728  -71.6827 C.3       11 UNK        -0.0857 
     47 S47       -77.2348   25.3056  -71.6584 S.3       11 UNK        -0.2512 
     48 C48       -77.7449   26.7001  -70.6091 C.3       11 UNK         0.0225 
     49 N         -75.2942   23.9105  -73.6352 N.am      5 UNK        -0.4615 
     50 C         -74.8020   23.2885  -74.7132 C.2       4 UNK         0.5053 
     51 O         -73.8060   23.6690  -75.3242 O.2       4 UNK        -0.5105 
     52 CA        -75.5809   22.0642  -75.2280 C.3       4 UNK         0.0263 
     53 CB        -75.1294   20.7929  -74.4923 C.3       4 UNK        -0.1981 
     54 N         -77.0403   22.1989  -75.1298 N.am      4 UNK        -0.4224 
     55 C         -77.7580   23.1810  -75.6927 C.2       3 UNK         0.4895 
     56 O         -77.2589   24.0977  -76.3540 O.2       3 UNK        -0.5091 
     57 CA        -79.2757   23.1547  -75.4576 C.3       3 UNK         0.0250 
     58 CB        -79.6112   23.2891  -73.9566 C.3       3 UNK        -0.1996 
     59 N         -79.8515   24.2701  -76.2012 N.am      3 UNK        -0.4254 
     60 C         -81.1446   24.5378  -76.4002 C.2       2 UNK         0.5004 
     61 O         -82.0714   23.7967  -76.0644 O.2       2 UNK        -0.5226 
     62 CA        -81.4493   25.8795  -77.0940 C.3       2 UNK         0.0269 
     63 CB        -82.0744   25.6481  -78.4798 C.3       2 UNK        -0.1926 
     64 N         -82.3261   26.7544  -76.3056 N.am      2 UNK        -0.4687 
     65 C         -82.1230   27.1304  -75.0328 C.2       1 UNK         0.5165 
     66 O         -81.1644   26.7623  -74.3505 O.2       1 UNK        -0.5079 
     67 H67       -85.5590   26.3726  -71.0616 H         1 UNK         0.0900 
     68 H68       -83.9718   27.0362  -70.6673 H         1 UNK         0.0900 
     69 H69       -84.1319   25.3326  -71.0991 H         1 UNK         0.0900 
     70 H70       -83.0832   28.2364  -72.3411 H         1 UNK         0.2959 
     71 H71       -84.0408   28.0817  -75.0543 H         1 UNK         0.1079 
     72 H72       -82.1794   29.8255  -75.4483 H         1 UNK         0.0837 
     73 H73       -83.4753   30.2630  -74.3863 H         1 UNK         0.0837 
     74 H74       -79.6229   30.7660  -74.5163 H         1 UNK         0.0685 
     75 H75       -79.8890   29.0526  -74.6922 H         1 UNK         0.0685 
     76 H76       -79.4624   27.5663  -72.5367 H         1 UNK         0.1434 
     77 H77       -76.0059   28.7878  -70.3109 H         1 UNK         0.1329 
     78 H78       -77.7986   31.4743  -73.1308 H         1 UNK         0.1335 
     79 H79       -76.2117   32.2853  -71.3926 H         1 UNK         0.0680 
     80 H80       -75.3995   31.1742  -70.3224 H         1 UNK         0.0680 
     81 H81       -73.3210   29.8664  -70.8290 H         1 UNK         0.1032 
     82 H82       -74.0648   28.8991  -72.0816 H         1 UNK         0.1032 
     83 H83       -71.5078   30.5343  -72.4214 H         1 UNK         0.0461 
     84 H84       -69.8945   26.9913  -72.2979 H         1 UNK         0.3453 
     85 H85       -70.4120   27.8497  -73.7305 H         1 UNK         0.3453 
     86 H86       -72.8232   28.6474  -74.3180 H         1 UNK         0.2984 
     87 H87       -72.9074   30.0432  -76.6921 H         1 UNK         0.0554 
     88 H88       -71.1774   30.0306  -78.4995 H         1 UNK         0.0847 
     89 H89       -69.9003   30.0793  -77.2847 H         1 UNK         0.0847 
     90 H90       -71.0104   31.4308  -77.4543 H         1 UNK         0.0847 
     91 H91       -72.7948   27.8638  -76.9695 H         1 UNK         0.3141 
     92 H92       -70.4529   25.5450  -77.3225 H         1 UNK         0.0743 
     93 H93       -69.9004   25.2268  -74.9163 H         1 UNK         0.0784 
     94 H94       -71.5997   25.3650  -74.4847 H         1 UNK         0.0784 
     95 H95       -71.0356   24.0005  -75.4486 H         1 UNK         0.0784 
     96 H96       -73.1563   25.1418  -76.3809 H         1 UNK         0.3213 
     97 H97       -74.7418   26.0610  -79.4435 H         1 UNK         0.0855 
     98 H98       -74.4362   23.3664  -78.0119 H         1 UNK         0.0814 
     99 H99       -74.1663   23.6633  -79.7220 H         1 UNK         0.0814 
    100 H100      -75.7840   23.8204  -79.0532 H         1 UNK         0.0814 
    101 H101      -75.8583   25.2258  -76.9773 H         1 UNK         0.3105 
    102 H102      -76.0106   28.4224  -75.3601 H         1 UNK         0.0547 
    103 H103      -78.0303   26.6108  -76.7744 H         1 UNK         0.0837 
    104 H104      -78.3867   27.4236  -75.2559 H         1 UNK         0.0837 
    105 H105      -78.0140   28.3630  -76.6967 H         1 UNK         0.0837 
    106 H106      -76.7239   25.7273  -74.6228 H         1 UNK         0.3020 
    107 H107      -73.7053   25.0089  -72.8988 H         1 UNK         0.1245 
    108 H108      -75.1207   26.4667  -71.3381 H         1 UNK         0.0781 
    109 H109      -75.0165   24.7802  -70.9387 H         1 UNK         0.0781 
    110 H110      -77.1137   26.7378  -69.7198 H         1 UNK         0.0836 
    111 H111      -78.7579   26.5114  -70.2508 H         1 UNK         0.0836 
    112 H112      -76.1264   23.5418  -73.1984 H         1 UNK         0.3022 
    113 H113      -75.3383   21.9461  -76.2856 H         1 UNK         0.0747 
    114 H114      -75.5917   19.9020  -74.9179 H         1 UNK         0.0793 
    115 H115      -74.0489   20.6616  -74.5684 H         1 UNK         0.0793 
    116 H116      -75.3795   20.8281  -73.4312 H         1 UNK         0.0793 
    117 H117      -77.5242   21.4839  -74.6056 H         1 UNK         0.3047 
    118 H118      -79.6728   22.2173  -75.8516 H         1 UNK         0.0822 
    119 H119      -79.1369   22.5095  -73.3600 H         1 UNK         0.0807 
    120 H120      -80.6838   23.2111  -73.7795 H         1 UNK         0.0807 
    121 H121      -79.2858   24.2520  -73.5616 H         1 UNK         0.0807 
    122 H122      -79.1422   24.8921  -76.5683 H         1 UNK         0.2946 
    123 H123      -80.5117   26.4204  -77.2355 H         1 UNK         0.1144 
    124 H124      -81.4342   25.0152  -79.0960 H         1 UNK         0.0793 
    125 H125      -82.2128   26.5865  -79.0173 H         1 UNK         0.0793 
    126 H126      -83.0450   25.1554  -78.4065 H         1 UNK         0.0793 
    127 H127      -83.1525   27.0893  -76.7793 H         1 UNK         0.2896 
@<TRIPOS>BOND
     1    1    2 1    
     2    1   67 1    
     3    1   68 1    
     4    1   69 1    
     5    2    3 2    
     6    2    4 am   BACKBONE|DICT|INTERRES
     7    4    5 1    
     8    4   70 1    
     9    5    6 1    
    10    5   65 1    
    11    5   71 1    
    12    6    7 1    
    13    6   72 1    
    14    6   73 1    
    15    7    8 1    
    16    8    9 1    
    17    8   74 1    
    18    8   75 1    
    19    9   10 ar   
    20    9   14 ar   
    21   10   11 ar   
    22   10   76 1    
    23   11   12 ar   
    24   11   48 1    
    25   12   13 ar   
    26   12   77 1    
    27   13   14 ar   
    28   13   15 1    
    29   14   78 1    
    30   15   16 1    
    31   15   79 1    
    32   15   80 1    
    33   16   17 1    
    34   17   18 1    
    35   17   81 1    
    36   17   82 1    
    37   18   19 1    
    38   18   22 1    
    39   18   83 1    
    40   19   20 am   BACKBONE|DICT|INTERRES
    41   19   21 2    
    42   20   84 1    
    43   20   85 1    
    44   22   23 am   BACKBONE|DICT|INTERRES
    45   22   86 1    
    46   23   24 2    
    47   23   25 1    
    48   25   26 1    
    49   25   27 1    
    50   25   87 1    
    51   26   88 1    
    52   26   89 1    
    53   26   90 1    
    54   27   28 am   BACKBONE|DICT|INTERRES
    55   27   91 1    
    56   28   29 2    
    57   28   30 1    
    58   30   31 1    
    59   30   32 1    
    60   30   92 1    
    61   31   93 1    
    62   31   94 1    
    63   31   95 1    
    64   32   33 am   BACKBONE|DICT|INTERRES
    65   32   96 1    
    66   33   34 2    
    67   33   35 1    
    68   35   36 1    
    69   35   37 1    
    70   35   97 1    
    71   36   98 1    
    72   36   99 1    
    73   36  100 1    
    74   37   38 am   BACKBONE|DICT|INTERRES
    75   37  101 1    
    76   38   39 2    
    77   38   40 1    
    78   40   41 1    
    79   40   42 1    
    80   40  102 1    
    81   41  103 1    
    82   41  104 1    
    83   41  105 1    
    84   42   43 am   BACKBONE|DICT|INTERRES
    85   42  106 1    
    86   43   44 2    
    87   43   45 1    
    88   45   46 1    
    89   45   49 1    
    90   45  107 1    
    91   46   47 1    
    92   46  108 1    
    93   46  109 1    
    94   47   48 1    
    95   48  110 1    
    96   48  111 1    
    97   49   50 am   BACKBONE|DICT|INTERRES
    98   49  112 1    
    99   50   51 2    
   100   50   52 1    
   101   52   53 1    
   102   52   54 1    
   103   52  113 1    
   104   53  114 1    
   105   53  115 1    
   106   53  116 1    
   107   54   55 am   BACKBONE|DICT|INTERRES
   108   54  117 1    
   109   55   56 2    
   110   55   57 1    
   111   57   58 1    
   112   57   59 1    
   113   57  118 1    
   114   58  119 1    
   115   58  120 1    
   116   58  121 1    
   117   59   60 am   BACKBONE|DICT|INTERRES
   118   59  122 1    
   119   60   61 2    
   120   60   62 1    
   121   62   63 1    
   122   62   64 1    
   123   62  123 1    
   124   63  124 1    
   125   63  125 1    
   126   63  126 1    
   127   64   65 am   BACKBONE|DICT|INTERRES
   128   64  127 1    
   129   65   66 2    
@<TRIPOS>SUBSTRUCTURE
     1 UNK         1 GROUP             0       ****    0 ROOT    
