@<TRIPOS>MOLECULE
3R135
127   129    1
SMALL
USER_CHARGES


@<TRIPOS>ATOM
      1 CA        -79.0435   31.8936  -75.6150 C.3       0 UNK        -0.1998 
      2 C         -79.9686   30.8018  -75.0967 C.2       0 UNK         0.4909 
      3 O         -81.1887   30.9404  -75.1943 O.2       0 UNK        -0.5240 
      4 N         -79.3898   29.7260  -74.5492 N.am      1 UNK        -0.4739 
      5 CA        -80.0669   28.5284  -74.0336 C.3       1 UNK         0.0864 
      6 C6        -81.0532   28.7872  -72.8509 C.3       11 UNK        -0.0881 
      7 S7        -80.3745   29.7826  -71.4819 S.3       11 UNK        -0.2682 
      8 C8        -79.6306   28.5088  -70.4042 C.3       11 UNK         0.0289 
      9 C9        -78.2709   28.0155  -70.8916 C.ar      11 UNK        -0.0687 
     10 C10       -77.9286   26.6639  -70.7747 C.ar      11 UNK        -0.0823 
     11 C11       -76.6684   26.2086  -71.1813 C.ar      11 UNK        -0.0830 
     12 C12       -75.7512   27.1134  -71.7258 C.ar      11 UNK        -0.1021 
     13 C13       -76.0845   28.4650  -71.8491 C.ar      11 UNK        -0.0753 
     14 C14       -77.3344   28.9098  -71.4190 C.ar      11 UNK        -0.0933 
     15 C15       -75.1226   29.4527  -72.4805 C.3       11 UNK         0.0166 
     16 S16       -74.0716   30.2813  -71.2587 S.3       11 UNK        -0.2615 
     17 C17       -73.7030   31.8449  -72.1366 C.3       11 UNK        -0.0865 
     18 CA        -72.7542   31.7351  -73.3663 C.3       10 UNK         0.0862 
     19 C         -71.3628   31.1388  -73.0156 C.2       10 UNK         0.5551 
     20 N         -70.9562   30.0036  -73.5670 N.am      10 UNK        -0.7319 
     21 O         -70.6190   31.7417  -72.2452 O.2       10 UNK        -0.5018 
     22 N         -73.4037   31.1608  -74.5613 N.am      10 UNK        -0.4509 
     23 C         -74.2138   31.8529  -75.3780 C.2       10 UNK         0.4899 
     24 O         -74.5470   33.0201  -75.1695 O.2       10 UNK        -0.4839 
     25 CA        -74.7379   31.1683  -76.6571 C.3       9 UNK         0.0222 
     26 CB        -73.9097   31.6136  -77.8735 C.3       9 UNK        -0.1966 
     27 N         -74.7338   29.7081  -76.5902 N.am      9 UNK        -0.4218 
     28 C         -75.6200   28.9688  -75.9127 C.2       9 UNK         0.5020 
     29 O         -76.6177   29.4395  -75.3653 O.2       9 UNK        -0.5274 
     30 CA        -75.3584   27.4517  -75.7999 C.3       8 UNK         0.0270 
     31 CB        -76.4123   26.6755  -76.6075 C.3       8 UNK        -0.1976 
     32 N         -74.0194   26.9700  -76.1814 N.am      8 UNK        -0.4313 
     33 C         -72.8385   27.3997  -75.7112 C.2       8 UNK         0.5041 
     34 O         -72.7124   28.3537  -74.9429 O.2       8 UNK        -0.5577 
     35 CA        -71.6007   26.6187  -76.1673 C.3       7 UNK         0.0284 
     36 CB        -70.2834   27.1618  -75.5802 C.3       7 UNK        -0.1958 
     37 N         -71.7739   25.2205  -75.7890 N.am      7 UNK        -0.4454 
     38 C         -71.3671   24.1691  -76.5072 C.2       7 UNK         0.5089 
     39 O         -70.7198   24.2586  -77.5511 O.2       7 UNK        -0.5125 
     40 CA        -71.7620   22.7751  -75.9825 C.3       6 UNK         0.0408 
     41 CB        -70.6024   22.1610  -75.1815 C.3       6 UNK        -0.1791 
     42 N         -72.9855   22.7394  -75.1667 N.am      6 UNK        -0.4762 
     43 C         -74.2078   23.0968  -75.5893 C.2       6 UNK         0.5007 
     44 O         -74.4256   23.6138  -76.6885 O.2       6 UNK        -0.5032 
     45 CA        -75.3753   22.8567  -74.6107 C.3       5 UNK         0.0783 
     46 C46       -75.5652   24.0585  -73.6525 C.3       11 UNK        -0.0857 
     47 S47       -76.8475   23.7215  -72.3989 S.3       11 UNK        -0.2512 
     48 C48       -76.2926   24.7446  -71.0006 C.3       11 UNK         0.0225 
     49 N         -76.5999   22.5723  -75.3591 N.am      5 UNK        -0.4615 
     50 C         -76.8773   21.4322  -75.9974 C.2       4 UNK         0.5053 
     51 O         -76.1492   20.4384  -75.9576 O.2       4 UNK        -0.5105 
     52 CA        -78.1974   21.4002  -76.7971 C.3       4 UNK         0.0263 
     53 CB        -78.4666   20.0275  -77.4426 C.3       4 UNK        -0.1981 
     54 N         -79.3610   21.7792  -75.9871 N.am      4 UNK        -0.4224 
     55 C         -79.6821   23.0270  -75.6217 C.2       3 UNK         0.4895 
     56 O         -79.0039   24.0180  -75.9048 O.2       3 UNK        -0.5091 
     57 CA        -80.9393   23.1793  -74.7496 C.3       3 UNK         0.0250 
     58 CB        -80.5907   22.9690  -73.2667 C.3       3 UNK        -0.1996 
     59 N         -81.5468   24.5006  -74.9054 N.am      3 UNK        -0.4254 
     60 C         -82.1788   24.9369  -76.0040 C.2       2 UNK         0.5004 
     61 O         -82.4140   24.2305  -76.9856 O.2       2 UNK        -0.5226 
     62 CA        -82.6432   26.4049  -76.0048 C.3       2 UNK         0.0269 
     63 CB        -84.1537   26.4912  -75.7299 C.3       2 UNK        -0.1926 
     64 N         -81.9318   27.2333  -75.0244 N.am      2 UNK        -0.4687 
     65 C         -80.6960   27.7267  -75.1995 C.2       1 UNK         0.5165 
     66 O         -80.0498   27.5581  -76.2354 O.2       1 UNK        -0.5079 
     67 H67       -79.3797   32.8697  -75.2666 H         1 UNK         0.0900 
     68 H68       -79.0434   31.8995  -76.7045 H         1 UNK         0.0900 
     69 H69       -78.0178   31.7516  -75.2744 H         1 UNK         0.0900 
     70 H70       -78.3768   29.6468  -74.6118 H         1 UNK         0.2959 
     71 H71       -79.2670   27.8915  -73.6525 H         1 UNK         0.1079 
     72 H72       -81.9414   29.3130  -73.2058 H         1 UNK         0.0837 
     73 H73       -81.4070   27.8429  -72.4339 H         1 UNK         0.0837 
     74 H74       -80.3296   27.6790  -70.2894 H         1 UNK         0.0685 
     75 H75       -79.4976   28.9369  -69.4099 H         1 UNK         0.0685 
     76 H76       -78.6373   25.9642  -70.3527 H         1 UNK         0.1434 
     77 H77       -74.7788   26.7695  -72.0510 H         1 UNK         0.1329 
     78 H78       -77.5788   29.9594  -71.5064 H         1 UNK         0.1335 
     79 H79       -74.4843   28.9406  -73.1973 H         1 UNK         0.0680 
     80 H80       -75.6886   30.2001  -73.0374 H         1 UNK         0.0680 
     81 H81       -73.2621   32.5255  -71.4061 H         1 UNK         0.1032 
     82 H82       -74.6426   32.3172  -72.4268 H         1 UNK         0.1032 
     83 H83       -72.5048   32.7628  -73.6392 H         1 UNK         0.0461 
     84 H84       -70.0428   29.6532  -73.3301 H         1 UNK         0.3453 
     85 H85       -71.5812   29.4319  -74.1316 H         1 UNK         0.3453 
     86 H86       -73.1735   30.1945  -74.7762 H         1 UNK         0.2984 
     87 H87       -75.7667   31.5018  -76.8092 H         1 UNK         0.0554 
     88 H88       -74.3088   31.1995  -78.7996 H         1 UNK         0.0847 
     89 H89       -72.8668   31.3057  -77.7881 H         1 UNK         0.0847 
     90 H90       -73.9205   32.6997  -77.9765 H         1 UNK         0.0847 
     91 H91       -73.9362   29.2347  -76.9877 H         1 UNK         0.3141 
     92 H92       -75.4905   27.2046  -74.7458 H         1 UNK         0.0743 
     93 H93       -76.3341   26.8835  -77.6751 H         1 UNK         0.0784 
     94 H94       -76.3201   25.5987  -76.4696 H         1 UNK         0.0784 
     95 H95       -77.4218   26.9473  -76.2963 H         1 UNK         0.0784 
     96 H96       -74.0069   26.1709  -76.8024 H         1 UNK         0.3213 
     97 H97       -71.5560   26.7076  -77.2552 H         1 UNK         0.0855 
     98 H98       -70.2750   27.1066  -74.4910 H         1 UNK         0.0814 
     99 H99       -70.1318   28.2053  -75.8591 H         1 UNK         0.0814 
    100 H100      -69.4245   26.6016  -75.9499 H         1 UNK         0.0814 
    101 H101      -72.3085   25.0477  -74.9492 H         1 UNK         0.3105 
    102 H102      -71.9393   22.1447  -76.8563 H         1 UNK         0.0547 
    103 H103      -69.6846   22.1470  -75.7713 H         1 UNK         0.0837 
    104 H104      -70.3951   22.7263  -74.2721 H         1 UNK         0.0837 
    105 H105      -70.8156   21.1304  -74.8974 H         1 UNK         0.0837 
    106 H106      -72.8894   22.3381  -74.2441 H         1 UNK         0.3020 
    107 H107      -75.1370   21.9722  -74.0150 H         1 UNK         0.1245 
    108 H108      -75.8539   24.9546  -74.2008 H         1 UNK         0.0781 
    109 H109      -74.6279   24.2929  -73.1448 H         1 UNK         0.0781 
    110 H110      -75.2165   24.6354  -70.8578 H         1 UNK         0.0836 
    111 H111      -76.7529   24.3623  -70.0883 H         1 UNK         0.0836 
    112 H112      -77.2654   23.3342  -75.4512 H         1 UNK         0.3022 
    113 H113      -78.0909   22.1273  -77.6053 H         1 UNK         0.0747 
    114 H114      -79.3710   20.0450  -78.0512 H         1 UNK         0.0793 
    115 H115      -77.6451   19.7354  -78.0984 H         1 UNK         0.0793 
    116 H116      -78.5804   19.2436  -76.6928 H         1 UNK         0.0793 
    117 H117      -79.9452   21.0190  -75.6690 H         1 UNK         0.3047 
    118 H118      -81.6706   22.4272  -75.0536 H         1 UNK         0.0822 
    119 H119      -80.1340   21.9920  -73.1027 H         1 UNK         0.0807 
    120 H120      -81.4803   23.0184  -72.6385 H         1 UNK         0.0807 
    121 H121      -79.8853   23.7201  -72.9087 H         1 UNK         0.0807 
    122 H122      -81.3791   25.1639  -74.1651 H         1 UNK         0.2946 
    123 H123      -82.4537   26.8030  -77.0047 H         1 UNK         0.1144 
    124 H124      -84.7170   25.9096  -76.4612 H         1 UNK         0.0793 
    125 H125      -84.5106   27.5194  -75.7933 H         1 UNK         0.0793 
    126 H126      -84.4087   26.1059  -74.7418 H         1 UNK         0.0793 
    127 H127      -82.4210   27.4337  -74.1642 H         1 UNK         0.2896 
@<TRIPOS>BOND
     1    1    2 1    
     2    1   67 1    
     3    1   68 1    
     4    1   69 1    
     5    2    3 2    
     6    2    4 am   BACKBONE|DICT|INTERRES
     7    4    5 1    
     8    4   70 1    
     9    5    6 1    
    10    5   65 1    
    11    5   71 1    
    12    6    7 1    
    13    6   72 1    
    14    6   73 1    
    15    7    8 1    
    16    8    9 1    
    17    8   74 1    
    18    8   75 1    
    19    9   10 ar   
    20    9   14 ar   
    21   10   11 ar   
    22   10   76 1    
    23   11   12 ar   
    24   11   48 1    
    25   12   13 ar   
    26   12   77 1    
    27   13   14 ar   
    28   13   15 1    
    29   14   78 1    
    30   15   16 1    
    31   15   79 1    
    32   15   80 1    
    33   16   17 1    
    34   17   18 1    
    35   17   81 1    
    36   17   82 1    
    37   18   19 1    
    38   18   22 1    
    39   18   83 1    
    40   19   20 am   BACKBONE|DICT|INTERRES
    41   19   21 2    
    42   20   84 1    
    43   20   85 1    
    44   22   23 am   BACKBONE|DICT|INTERRES
    45   22   86 1    
    46   23   24 2    
    47   23   25 1    
    48   25   26 1    
    49   25   27 1    
    50   25   87 1    
    51   26   88 1    
    52   26   89 1    
    53   26   90 1    
    54   27   28 am   BACKBONE|DICT|INTERRES
    55   27   91 1    
    56   28   29 2    
    57   28   30 1    
    58   30   31 1    
    59   30   32 1    
    60   30   92 1    
    61   31   93 1    
    62   31   94 1    
    63   31   95 1    
    64   32   33 am   BACKBONE|DICT|INTERRES
    65   32   96 1    
    66   33   34 2    
    67   33   35 1    
    68   35   36 1    
    69   35   37 1    
    70   35   97 1    
    71   36   98 1    
    72   36   99 1    
    73   36  100 1    
    74   37   38 am   BACKBONE|DICT|INTERRES
    75   37  101 1    
    76   38   39 2    
    77   38   40 1    
    78   40   41 1    
    79   40   42 1    
    80   40  102 1    
    81   41  103 1    
    82   41  104 1    
    83   41  105 1    
    84   42   43 am   BACKBONE|DICT|INTERRES
    85   42  106 1    
    86   43   44 2    
    87   43   45 1    
    88   45   46 1    
    89   45   49 1    
    90   45  107 1    
    91   46   47 1    
    92   46  108 1    
    93   46  109 1    
    94   47   48 1    
    95   48  110 1    
    96   48  111 1    
    97   49   50 am   BACKBONE|DICT|INTERRES
    98   49  112 1    
    99   50   51 2    
   100   50   52 1    
   101   52   53 1    
   102   52   54 1    
   103   52  113 1    
   104   53  114 1    
   105   53  115 1    
   106   53  116 1    
   107   54   55 am   BACKBONE|DICT|INTERRES
   108   54  117 1    
   109   55   56 2    
   110   55   57 1    
   111   57   58 1    
   112   57   59 1    
   113   57  118 1    
   114   58  119 1    
   115   58  120 1    
   116   58  121 1    
   117   59   60 am   BACKBONE|DICT|INTERRES
   118   59  122 1    
   119   60   61 2    
   120   60   62 1    
   121   62   63 1    
   122   62   64 1    
   123   62  123 1    
   124   63  124 1    
   125   63  125 1    
   126   63  126 1    
   127   64   65 am   BACKBONE|DICT|INTERRES
   128   64  127 1    
   129   65   66 2    
@<TRIPOS>SUBSTRUCTURE
     1 UNK         1 GROUP             0       ****    0 ROOT    
