@<TRIPOS>MOLECULE
3R135
127   129    1
SMALL
USER_CHARGES


@<TRIPOS>ATOM
      1 CA        -83.9361   27.2270  -74.3475 C.3       0 UNK        -0.1998 
      2 C         -82.4602   26.9148  -74.1597 C.2       0 UNK         0.4909 
      3 O         -81.9543   25.9779  -74.7797 O.2       0 UNK        -0.5240 
      4 N         -81.7643   27.7038  -73.3259 N.am      1 UNK        -0.4739 
      5 CA        -80.3448   27.5585  -72.9614 C.3       1 UNK         0.0864 
      6 C6        -80.0919   26.3582  -72.0121 C.3       11 UNK        -0.0881 
      7 S7        -80.8368   26.5569  -70.3553 S.3       11 UNK        -0.2682 
      8 C8        -79.7648   27.7803  -69.5106 C.3       11 UNK         0.0289 
      9 C9        -78.2993   27.7132  -69.9246 C.ar      11 UNK        -0.0687 
     10 C10       -77.5351   26.5731  -69.6548 C.ar      11 UNK        -0.0823 
     11 C11       -76.2194   26.4750  -70.1204 C.ar      11 UNK        -0.0830 
     12 C12       -75.6502   27.5524  -70.8065 C.ar      11 UNK        -0.1021 
     13 C13       -76.4054   28.6948  -71.0833 C.ar      11 UNK        -0.0753 
     14 C14       -77.7253   28.7735  -70.6323 C.ar      11 UNK        -0.0933 
     15 C15       -75.8204   29.8190  -71.9214 C.3       11 UNK         0.0166 
     16 S16       -75.9747   29.4319  -73.6933 S.3       11 UNK        -0.2615 
     17 C17       -75.8385   31.0874  -74.4555 C.3       11 UNK        -0.0865 
     18 CA        -74.3958   31.4979  -74.8560 C.3       10 UNK         0.0862 
     19 C         -73.5613   31.9952  -73.6372 C.2       10 UNK         0.5551 
     20 N         -72.3980   31.4309  -73.3347 N.am      10 UNK        -0.7319 
     21 O         -73.9780   32.9275  -72.9543 O.2       10 UNK        -0.5018 
     22 N         -73.7493   30.4642  -75.6766 N.am      10 UNK        -0.4509 
     23 C         -72.7453   30.6732  -76.5364 C.2       10 UNK         0.4899 
     24 O         -72.3211   31.7914  -76.8329 O.2       10 UNK        -0.4839 
     25 CA        -72.1042   29.4120  -77.1536 C.3       9 UNK         0.0222 
     26 CB        -70.7072   29.6840  -77.7502 C.3       9 UNK        -0.1966 
     27 N         -72.0532   28.2695  -76.2293 N.am      9 UNK        -0.4218 
     28 C         -71.4725   28.2331  -75.0166 C.2       9 UNK         0.5020 
     29 O         -70.8957   29.1961  -74.5094 O.2       9 UNK        -0.5274 
     30 CA        -71.5743   26.9298  -74.2023 C.3       8 UNK         0.0270 
     31 CB        -72.5207   27.1277  -73.0070 C.3       8 UNK        -0.1976 
     32 N         -72.0292   25.7851  -74.9950 N.am      8 UNK        -0.4313 
     33 C         -71.2528   25.1092  -75.8565 C.2       8 UNK         0.5041 
     34 O         -70.0490   25.3277  -75.9987 O.2       8 UNK        -0.5577 
     35 CA        -71.9161   24.0233  -76.7282 C.3       7 UNK         0.0284 
     36 CB        -71.6399   22.6276  -76.1457 C.3       7 UNK        -0.1958 
     37 N         -73.3614   24.1884  -76.9076 N.am      7 UNK        -0.4454 
     38 C         -73.9658   25.2483  -77.4633 C.2       7 UNK         0.5089 
     39 O         -73.3613   26.2057  -77.9466 O.2       7 UNK        -0.5125 
     40 CA        -75.5046   25.2750  -77.4118 C.3       6 UNK         0.0408 
     41 CB        -76.0828   24.7076  -78.7171 C.3       6 UNK        -0.1791 
     42 N         -76.1003   24.5725  -76.2644 N.am      6 UNK        -0.4762 
     43 C         -75.8088   24.7891  -74.9689 C.2       6 UNK         0.5007 
     44 O         -74.9315   25.5737  -74.6076 O.2       6 UNK        -0.5032 
     45 CA        -76.6185   23.9873  -73.9246 C.3       5 UNK         0.0783 
     46 C46       -76.6139   24.6215  -72.5098 C.3       11 UNK        -0.0857 
     47 S47       -75.0691   24.3678  -71.5652 S.3       11 UNK        -0.2512 
     48 C48       -75.4460   25.1707  -69.9622 C.3       11 UNK         0.0225 
     49 N         -77.9904   23.8352  -74.4115 N.am      5 UNK        -0.4615 
     50 C         -78.6383   22.6793  -74.5848 C.2       4 UNK         0.5053 
     51 O         -78.1473   21.5788  -74.3333 O.2       4 UNK        -0.5105 
     52 CA        -80.0706   22.7469  -75.1438 C.3       4 UNK         0.0263 
     53 CB        -81.1072   22.6325  -74.0154 C.3       4 UNK        -0.1981 
     54 N         -80.3453   23.9480  -75.9408 N.am      4 UNK        -0.4224 
     55 C         -79.9048   24.1278  -77.1948 C.2       3 UNK         0.4895 
     56 O         -79.1525   23.3413  -77.7702 O.2       3 UNK        -0.5091 
     57 CA        -80.3850   25.3837  -77.9355 C.3       3 UNK         0.0250 
     58 CB        -81.8891   25.2990  -78.2479 C.3       3 UNK        -0.1996 
     59 N         -80.1122   26.5864  -77.1511 N.am      3 UNK        -0.4254 
     60 C         -79.0863   27.4224  -77.3682 C.2       2 UNK         0.5004 
     61 O         -78.3082   27.3149  -78.3160 O.2       2 UNK        -0.5226 
     62 CA        -78.8816   28.5893  -76.3792 C.3       2 UNK         0.0269 
     63 CB        -79.2264   29.9323  -77.0436 C.3       2 UNK        -0.1926 
     64 N         -79.6323   28.4750  -75.1241 N.am      2 UNK        -0.4687 
     65 C         -79.4255   27.5245  -74.2030 C.2       1 UNK         0.5165 
     66 O         -78.6060   26.6186  -74.3496 O.2       1 UNK        -0.5079 
     67 H67       -84.1420   27.4438  -75.3952 H         1 UNK         0.0900 
     68 H68       -84.5387   26.3686  -74.0523 H         1 UNK         0.0900 
     69 H69       -84.2515   28.0843  -73.7534 H         1 UNK         0.0900 
     70 H70       -82.2475   28.4589  -72.8591 H         1 UNK         0.2959 
     71 H71       -80.0650   28.4678  -72.4285 H         1 UNK         0.1079 
     72 H72       -80.4940   25.4473  -72.4516 H         1 UNK         0.0837 
     73 H73       -79.0286   26.1619  -71.8912 H         1 UNK         0.0837 
     74 H74       -79.8395   27.6278  -68.4331 H         1 UNK         0.0685 
     75 H75       -80.1681   28.7758  -69.7018 H         1 UNK         0.0685 
     76 H76       -77.9906   25.7399  -69.1371 H         1 UNK         0.1434 
     77 H77       -74.6403   27.4731  -71.1819 H         1 UNK         0.1329 
     78 H78       -78.3149   29.6504  -70.8623 H         1 UNK         0.1335 
     79 H79       -76.3298   30.7572  -71.6964 H         1 UNK         0.0680 
     80 H80       -74.7687   29.9667  -71.6715 H         1 UNK         0.0680 
     81 H81       -76.3010   31.8372  -73.8109 H         1 UNK         0.1032 
     82 H82       -76.4578   31.0721  -75.3535 H         1 UNK         0.1032 
     83 H83       -74.4995   32.3800  -75.4909 H         1 UNK         0.0461 
     84 H84       -71.8784   31.7793  -72.5456 H         1 UNK         0.3453 
     85 H85       -72.0140   30.6722  -73.8886 H         1 UNK         0.3453 
     86 H86       -74.0276   29.5151  -75.4734 H         1 UNK         0.2984 
     87 H87       -72.7591   29.1093  -77.9718 H         1 UNK         0.0554 
     88 H88       -70.7550   30.4417  -78.5332 H         1 UNK         0.0847 
     89 H89       -70.2858   28.7841  -78.1981 H         1 UNK         0.0847 
     90 H90       -70.0077   30.0414  -76.9937 H         1 UNK         0.0847 
     91 H91       -72.5012   27.4254  -76.5732 H         1 UNK         0.3141 
     92 H92       -70.5786   26.7090  -73.8122 H         1 UNK         0.0743 
     93 H93       -72.1602   27.9186  -72.3480 H         1 UNK         0.0784 
     94 H94       -73.5232   27.4097  -73.3312 H         1 UNK         0.0784 
     95 H95       -72.6047   26.2197  -72.4097 H         1 UNK         0.0784 
     96 H96       -73.0201   25.5600  -74.9286 H         1 UNK         0.3213 
     97 H97       -71.4562   24.0809  -77.7170 H         1 UNK         0.0855 
     98 H98       -72.0987   22.5020  -75.1641 H         1 UNK         0.0814 
     99 H99       -70.5684   22.4592  -76.0278 H         1 UNK         0.0814 
    100 H100      -72.0182   21.8410  -76.7989 H         1 UNK         0.0814 
    101 H101      -73.9513   23.4614  -76.5305 H         1 UNK         0.3105 
    102 H102      -75.8037   26.3221  -77.3335 H         1 UNK         0.0547 
    103 H103      -75.8851   23.6400  -78.8190 H         1 UNK         0.0837 
    104 H104      -75.6506   25.2059  -79.5860 H         1 UNK         0.0837 
    105 H105      -77.1604   24.8571  -78.7712 H         1 UNK         0.0837 
    106 H106      -76.8414   23.9182  -76.4767 H         1 UNK         0.3020 
    107 H107      -76.1402   23.0077  -73.8597 H         1 UNK         0.1245 
    108 H108      -77.4237   24.2011  -71.9113 H         1 UNK         0.0781 
    109 H109      -76.8183   25.6899  -72.5890 H         1 UNK         0.0781 
    110 H110      -74.5121   25.3659  -69.4337 H         1 UNK         0.0836 
    111 H111      -76.0051   24.4658  -69.3451 H         1 UNK         0.0836 
    112 H112      -78.4559   24.7139  -74.6263 H         1 UNK         0.3022 
    113 H113      -80.1978   21.8780  -75.7935 H         1 UNK         0.0747 
    114 H114      -82.1211   22.5858  -74.4133 H         1 UNK         0.0793 
    115 H115      -80.9478   21.7272  -73.4280 H         1 UNK         0.0793 
    116 H116      -81.0578   23.4772  -73.3311 H         1 UNK         0.0793 
    117 H117      -80.9539   24.6503  -75.5214 H         1 UNK         0.3047 
    118 H118      -79.8539   25.4272  -78.8889 H         1 UNK         0.0822 
    119 H119      -82.2173   26.1570  -78.8349 H         1 UNK         0.0807 
    120 H120      -82.4970   25.2634  -77.3434 H         1 UNK         0.0807 
    121 H121      -82.1162   24.4040  -78.8287 H         1 UNK         0.0807 
    122 H122      -80.6816   26.7230  -76.3244 H         1 UNK         0.2946 
    123 H123      -77.8185   28.5952  -76.1262 H         1 UNK         0.1144 
    124 H124      -78.9936   30.7715  -76.3878 H         1 UNK         0.0793 
    125 H125      -80.2830   29.9918  -77.3070 H         1 UNK         0.0793 
    126 H126      -78.6531   30.0737  -77.9611 H         1 UNK         0.0793 
    127 H127      -80.3542   29.1617  -74.9584 H         1 UNK         0.2896 
@<TRIPOS>BOND
     1    1    2 1    
     2    1   67 1    
     3    1   68 1    
     4    1   69 1    
     5    2    3 2    
     6    2    4 am   BACKBONE|DICT|INTERRES
     7    4    5 1    
     8    4   70 1    
     9    5    6 1    
    10    5   65 1    
    11    5   71 1    
    12    6    7 1    
    13    6   72 1    
    14    6   73 1    
    15    7    8 1    
    16    8    9 1    
    17    8   74 1    
    18    8   75 1    
    19    9   10 ar   
    20    9   14 ar   
    21   10   11 ar   
    22   10   76 1    
    23   11   12 ar   
    24   11   48 1    
    25   12   13 ar   
    26   12   77 1    
    27   13   14 ar   
    28   13   15 1    
    29   14   78 1    
    30   15   16 1    
    31   15   79 1    
    32   15   80 1    
    33   16   17 1    
    34   17   18 1    
    35   17   81 1    
    36   17   82 1    
    37   18   19 1    
    38   18   22 1    
    39   18   83 1    
    40   19   20 am   BACKBONE|DICT|INTERRES
    41   19   21 2    
    42   20   84 1    
    43   20   85 1    
    44   22   23 am   BACKBONE|DICT|INTERRES
    45   22   86 1    
    46   23   24 2    
    47   23   25 1    
    48   25   26 1    
    49   25   27 1    
    50   25   87 1    
    51   26   88 1    
    52   26   89 1    
    53   26   90 1    
    54   27   28 am   BACKBONE|DICT|INTERRES
    55   27   91 1    
    56   28   29 2    
    57   28   30 1    
    58   30   31 1    
    59   30   32 1    
    60   30   92 1    
    61   31   93 1    
    62   31   94 1    
    63   31   95 1    
    64   32   33 am   BACKBONE|DICT|INTERRES
    65   32   96 1    
    66   33   34 2    
    67   33   35 1    
    68   35   36 1    
    69   35   37 1    
    70   35   97 1    
    71   36   98 1    
    72   36   99 1    
    73   36  100 1    
    74   37   38 am   BACKBONE|DICT|INTERRES
    75   37  101 1    
    76   38   39 2    
    77   38   40 1    
    78   40   41 1    
    79   40   42 1    
    80   40  102 1    
    81   41  103 1    
    82   41  104 1    
    83   41  105 1    
    84   42   43 am   BACKBONE|DICT|INTERRES
    85   42  106 1    
    86   43   44 2    
    87   43   45 1    
    88   45   46 1    
    89   45   49 1    
    90   45  107 1    
    91   46   47 1    
    92   46  108 1    
    93   46  109 1    
    94   47   48 1    
    95   48  110 1    
    96   48  111 1    
    97   49   50 am   BACKBONE|DICT|INTERRES
    98   49  112 1    
    99   50   51 2    
   100   50   52 1    
   101   52   53 1    
   102   52   54 1    
   103   52  113 1    
   104   53  114 1    
   105   53  115 1    
   106   53  116 1    
   107   54   55 am   BACKBONE|DICT|INTERRES
   108   54  117 1    
   109   55   56 2    
   110   55   57 1    
   111   57   58 1    
   112   57   59 1    
   113   57  118 1    
   114   58  119 1    
   115   58  120 1    
   116   58  121 1    
   117   59   60 am   BACKBONE|DICT|INTERRES
   118   59  122 1    
   119   60   61 2    
   120   60   62 1    
   121   62   63 1    
   122   62   64 1    
   123   62  123 1    
   124   63  124 1    
   125   63  125 1    
   126   63  126 1    
   127   64   65 am   BACKBONE|DICT|INTERRES
   128   64  127 1    
   129   65   66 2    
@<TRIPOS>SUBSTRUCTURE
     1 UNK         1 GROUP             0       ****    0 ROOT    
