@<TRIPOS>MOLECULE
3R135
127   129    1
SMALL
USER_CHARGES


@<TRIPOS>ATOM
      1 CA        -82.4201   26.5281  -71.7185 C.3       0 UNK        -0.1998 
      2 C         -82.5988   27.3593  -72.9796 C.2       0 UNK         0.4909 
      3 O         -83.6916   27.3942  -73.5456 O.2       0 UNK        -0.5240 
      4 N         -81.5272   28.0133  -73.4437 N.am      1 UNK        -0.4739 
      5 CA        -81.4806   28.8753  -74.6330 C.3       1 UNK         0.0864 
      6 C6        -80.3933   29.9791  -74.4924 C.3       11 UNK        -0.0881 
      7 S7        -78.7340   29.3557  -74.0441 S.3       11 UNK        -0.2682 
      8 C8        -78.6953   29.6582  -72.2521 C.3       11 UNK         0.0289 
      9 C9        -77.6378   28.7877  -71.5947 C.ar      11 UNK        -0.0687 
     10 C10       -77.9451   27.4809  -71.2078 C.ar      11 UNK        -0.0823 
     11 C11       -76.9740   26.6681  -70.6176 C.ar      11 UNK        -0.0830 
     12 C12       -75.6805   27.1658  -70.4305 C.ar      11 UNK        -0.1021 
     13 C13       -75.3631   28.4772  -70.8020 C.ar      11 UNK        -0.0753 
     14 C14       -76.3519   29.2850  -71.3740 C.ar      11 UNK        -0.0933 
     15 C15       -73.9661   29.0279  -70.5415 C.3       11 UNK         0.0166 
     16 S16       -72.9710   29.1761  -72.0618 S.3       11 UNK        -0.2615 
     17 C17       -73.5406   30.7776  -72.7307 C.3       11 UNK        -0.0865 
     18 CA        -74.2815   30.6160  -74.0921 C.3       10 UNK         0.0862 
     19 C         -75.1526   31.8554  -74.4640 C.2       10 UNK         0.5551 
     20 N         -75.3039   32.1972  -75.7380 N.am      10 UNK        -0.7319 
     21 O         -75.7277   32.5000  -73.5905 O.2       10 UNK        -0.5018 
     22 N         -73.3880   30.1465  -75.1675 N.am      10 UNK        -0.4509 
     23 C         -72.3149   30.7940  -75.6458 C.2       10 UNK         0.4899 
     24 O         -71.9439   31.9044  -75.2620 O.2       10 UNK        -0.4839 
     25 CA        -71.5331   30.0582  -76.7457 C.3       9 UNK         0.0222 
     26 CB        -70.2277   30.7683  -77.1661 C.3       9 UNK        -0.1966 
     27 N         -71.3089   28.6548  -76.3869 N.am      9 UNK        -0.4218 
     28 C         -70.5089   28.1463  -75.4351 C.2       9 UNK         0.5020 
     29 O         -69.7404   28.8253  -74.7526 O.2       9 UNK        -0.5274 
     30 CA        -70.5725   26.6191  -75.1895 C.3       8 UNK         0.0270 
     31 CB        -70.6715   26.2954  -73.6881 C.3       8 UNK        -0.1976 
     32 N         -71.6843   25.9599  -75.8828 N.am      8 UNK        -0.4313 
     33 C         -71.7227   25.6785  -77.1937 C.2       8 UNK         0.5041 
     34 O         -70.7557   25.8157  -77.9429 O.2       8 UNK        -0.5577 
     35 CA        -73.0710   25.2323  -77.7923 C.3       7 UNK         0.0284 
     36 CB        -73.0268   23.7397  -78.1549 C.3       7 UNK        -0.1958 
     37 N         -74.2344   25.4931  -76.9352 N.am      7 UNK        -0.4454 
     38 C         -74.6599   26.7026  -76.5301 C.2       7 UNK         0.5089 
     39 O         -74.1190   27.7608  -76.8544 O.2       7 UNK        -0.5125 
     40 CA        -75.8553   26.7457  -75.5598 C.3       6 UNK         0.0408 
     41 CB        -77.1387   27.0675  -76.3378 C.3       6 UNK        -0.1791 
     42 N         -76.0412   25.5055  -74.7988 N.am      6 UNK        -0.4762 
     43 C         -75.1407   24.9850  -73.9470 C.2       6 UNK         0.5007 
     44 O         -74.0701   25.5334  -73.6816 O.2       6 UNK        -0.5032 
     45 CA        -75.4223   23.5836  -73.3586 C.3       5 UNK         0.0783 
     46 C46       -75.7906   23.6374  -71.8551 C.3       11 UNK        -0.0857 
     47 S47       -77.5262   24.1077  -71.5324 S.3       11 UNK        -0.2512 
     48 C48       -77.3460   25.2704  -70.1468 C.3       11 UNK         0.0225 
     49 N         -76.3897   22.7975  -74.1329 N.am      5 UNK        -0.4615 
     50 C         -76.2281   22.3890  -75.3972 C.2       4 UNK         0.5053 
     51 O         -75.2009   22.5825  -76.0458 O.2       4 UNK        -0.5105 
     52 CA        -77.4238   21.6887  -76.0690 C.3       4 UNK         0.0263 
     53 CB        -77.2661   20.1625  -75.9785 C.3       4 UNK        -0.1981 
     54 N         -78.7426   22.0725  -75.5441 N.am      4 UNK        -0.4224 
     55 C         -79.2378   23.3186  -75.5273 C.2       3 UNK         0.4895 
     56 O         -78.5978   24.3138  -75.8694 O.2       3 UNK        -0.5091 
     57 CA        -80.6694   23.4787  -74.9891 C.3       3 UNK         0.0250 
     58 CB        -80.6570   23.5988  -73.4567 C.3       3 UNK        -0.1996 
     59 N         -81.3399   24.6560  -75.5437 N.am      3 UNK        -0.4254 
     60 C         -81.7253   24.8068  -76.8191 C.2       2 UNK         0.5004 
     61 O         -81.6027   23.9302  -77.6762 O.2       2 UNK        -0.5226 
     62 CA        -82.3887   26.1442  -77.2035 C.3       2 UNK         0.0269 
     63 CB        -83.8579   25.9229  -77.6029 C.3       2 UNK        -0.1926 
     64 N         -82.3446   27.1275  -76.1165 N.am      2 UNK        -0.4687 
     65 C         -81.3813   28.0394  -75.9327 C.2       1 UNK         0.5165 
     66 O         -80.4533   28.2081  -76.7244 O.2       1 UNK        -0.5079 
     67 H67       -82.9353   27.0017  -70.8834 H         1 UNK         0.0900 
     68 H68       -81.3705   26.4115  -71.4506 H         1 UNK         0.0900 
     69 H69       -82.8448   25.5346  -71.8588 H         1 UNK         0.0900 
     70 H70       -80.6404   27.9162  -72.9716 H         1 UNK         0.2959 
     71 H71       -82.4372   29.3987  -74.7040 H         1 UNK         0.1079 
     72 H72       -80.3074   30.5534  -75.4168 H         1 UNK         0.0837 
     73 H73       -80.7085   30.7023  -73.7387 H         1 UNK         0.0837 
     74 H74       -79.6702   29.4497  -71.8096 H         1 UNK         0.0685 
     75 H75       -78.4935   30.7151  -72.0702 H         1 UNK         0.0685 
     76 H76       -78.9411   27.0921  -71.3638 H         1 UNK         0.1434 
     77 H77       -74.9257   26.5396  -69.9750 H         1 UNK         0.1329 
     78 H78       -76.1287   30.3029  -71.6552 H         1 UNK         0.1335 
     79 H79       -74.0331   29.9935  -70.0384 H         1 UNK         0.0680 
     80 H80       -73.4306   28.3730  -69.8524 H         1 UNK         0.0680 
     81 H81       -74.1690   31.2685  -71.9883 H         1 UNK         0.1032 
     82 H82       -72.6768   31.4347  -72.8328 H         1 UNK         0.1032 
     83 H83       -75.0138   29.8176  -73.9670 H         1 UNK         0.0461 
     84 H84       -75.8778   32.9917  -75.9717 H         1 UNK         0.3453 
     85 H85       -74.8496   31.6684  -76.4647 H         1 UNK         0.3453 
     86 H86       -73.6361   29.2593  -75.5924 H         1 UNK         0.2984 
     87 H87       -72.1858   30.0405  -77.6197 H         1 UNK         0.0554 
     88 H88       -69.7015   30.2083  -77.9389 H         1 UNK         0.0847 
     89 H89       -69.5462   30.9049  -76.3262 H         1 UNK         0.0847 
     90 H90       -70.4394   31.7588  -77.5707 H         1 UNK         0.0847 
     91 H91       -71.9386   28.0060  -76.8423 H         1 UNK         0.3141 
     92 H92       -69.6359   26.1998  -75.5627 H         1 UNK         0.0743 
     93 H93       -69.8235   26.7050  -73.1377 H         1 UNK         0.0784 
     94 H94       -71.5778   26.7126  -73.2476 H         1 UNK         0.0784 
     95 H95       -70.6795   25.2196  -73.5126 H         1 UNK         0.0784 
     96 H96       -72.5258   25.8174  -75.3355 H         1 UNK         0.3213 
     97 H97       -73.2150   25.8021  -78.7126 H         1 UNK         0.0855 
     98 H98       -72.8550   23.1174  -77.2758 H         1 UNK         0.0814 
     99 H99       -72.2215   23.5329  -78.8611 H         1 UNK         0.0814 
    100 H100      -73.9569   23.4136  -78.6209 H         1 UNK         0.0814 
    101 H101      -74.7296   24.6759  -76.5963 H         1 UNK         0.3105 
    102 H102      -75.6780   27.5468  -74.8395 H         1 UNK         0.0547 
    103 H103      -77.3133   26.3548  -77.1446 H         1 UNK         0.0837 
    104 H104      -78.0148   27.0491  -75.6902 H         1 UNK         0.0837 
    105 H105      -77.0871   28.0613  -76.7842 H         1 UNK         0.0837 
    106 H106      -76.8933   24.9867  -74.9917 H         1 UNK         0.3020 
    107 H107      -74.4699   23.0532  -73.4322 H         1 UNK         0.1245 
    108 H108      -75.1122   24.3019  -71.3165 H         1 UNK         0.0781 
    109 H109      -75.6382   22.6512  -71.4141 H         1 UNK         0.0781 
    110 H110      -76.6150   24.8868  -69.4332 H         1 UNK         0.0836 
    111 H111      -78.2935   25.3174  -69.6080 H         1 UNK         0.0836 
    112 H112      -77.2732   22.6226  -73.6768 H         1 UNK         0.3022 
    113 H113      -77.4037   21.9711  -77.1237 H         1 UNK         0.0747 
    114 H114      -78.0407   19.6477  -76.5472 H         1 UNK         0.0793 
    115 H115      -76.3048   19.8444  -76.3850 H         1 UNK         0.0793 
    116 H116      -77.3154   19.8119  -74.9468 H         1 UNK         0.0793 
    117 H117      -79.3301   21.3170  -75.2207 H         1 UNK         0.3047 
    118 H118      -81.2471   22.5957  -75.2711 H         1 UNK         0.0822 
    119 H119      -80.1614   22.7433  -72.9958 H         1 UNK         0.0807 
    120 H120      -81.6692   23.6362  -73.0545 H         1 UNK         0.0807 
    121 H121      -80.1303   24.4958  -73.1279 H         1 UNK         0.0807 
    122 H122      -81.4457   25.4484  -74.9301 H         1 UNK         0.2946 
    123 H123      -81.8509   26.5311  -78.0723 H         1 UNK         0.1144 
    124 H124      -83.9374   25.2203  -78.4337 H         1 UNK         0.0793 
    125 H125      -84.3256   26.8540  -77.9235 H         1 UNK         0.0793 
    126 H126      -84.4445   25.5195  -76.7766 H         1 UNK         0.0793 
    127 H127      -83.0671   27.0633  -75.4045 H         1 UNK         0.2896 
@<TRIPOS>BOND
     1    1    2 1    
     2    1   67 1    
     3    1   68 1    
     4    1   69 1    
     5    2    3 2    
     6    2    4 am   BACKBONE|DICT|INTERRES
     7    4    5 1    
     8    4   70 1    
     9    5    6 1    
    10    5   65 1    
    11    5   71 1    
    12    6    7 1    
    13    6   72 1    
    14    6   73 1    
    15    7    8 1    
    16    8    9 1    
    17    8   74 1    
    18    8   75 1    
    19    9   10 ar   
    20    9   14 ar   
    21   10   11 ar   
    22   10   76 1    
    23   11   12 ar   
    24   11   48 1    
    25   12   13 ar   
    26   12   77 1    
    27   13   14 ar   
    28   13   15 1    
    29   14   78 1    
    30   15   16 1    
    31   15   79 1    
    32   15   80 1    
    33   16   17 1    
    34   17   18 1    
    35   17   81 1    
    36   17   82 1    
    37   18   19 1    
    38   18   22 1    
    39   18   83 1    
    40   19   20 am   BACKBONE|DICT|INTERRES
    41   19   21 2    
    42   20   84 1    
    43   20   85 1    
    44   22   23 am   BACKBONE|DICT|INTERRES
    45   22   86 1    
    46   23   24 2    
    47   23   25 1    
    48   25   26 1    
    49   25   27 1    
    50   25   87 1    
    51   26   88 1    
    52   26   89 1    
    53   26   90 1    
    54   27   28 am   BACKBONE|DICT|INTERRES
    55   27   91 1    
    56   28   29 2    
    57   28   30 1    
    58   30   31 1    
    59   30   32 1    
    60   30   92 1    
    61   31   93 1    
    62   31   94 1    
    63   31   95 1    
    64   32   33 am   BACKBONE|DICT|INTERRES
    65   32   96 1    
    66   33   34 2    
    67   33   35 1    
    68   35   36 1    
    69   35   37 1    
    70   35   97 1    
    71   36   98 1    
    72   36   99 1    
    73   36  100 1    
    74   37   38 am   BACKBONE|DICT|INTERRES
    75   37  101 1    
    76   38   39 2    
    77   38   40 1    
    78   40   41 1    
    79   40   42 1    
    80   40  102 1    
    81   41  103 1    
    82   41  104 1    
    83   41  105 1    
    84   42   43 am   BACKBONE|DICT|INTERRES
    85   42  106 1    
    86   43   44 2    
    87   43   45 1    
    88   45   46 1    
    89   45   49 1    
    90   45  107 1    
    91   46   47 1    
    92   46  108 1    
    93   46  109 1    
    94   47   48 1    
    95   48  110 1    
    96   48  111 1    
    97   49   50 am   BACKBONE|DICT|INTERRES
    98   49  112 1    
    99   50   51 2    
   100   50   52 1    
   101   52   53 1    
   102   52   54 1    
   103   52  113 1    
   104   53  114 1    
   105   53  115 1    
   106   53  116 1    
   107   54   55 am   BACKBONE|DICT|INTERRES
   108   54  117 1    
   109   55   56 2    
   110   55   57 1    
   111   57   58 1    
   112   57   59 1    
   113   57  118 1    
   114   58  119 1    
   115   58  120 1    
   116   58  121 1    
   117   59   60 am   BACKBONE|DICT|INTERRES
   118   59  122 1    
   119   60   61 2    
   120   60   62 1    
   121   62   63 1    
   122   62   64 1    
   123   62  123 1    
   124   63  124 1    
   125   63  125 1    
   126   63  126 1    
   127   64   65 am   BACKBONE|DICT|INTERRES
   128   64  127 1    
   129   65   66 2    
@<TRIPOS>SUBSTRUCTURE
     1 UNK         1 GROUP             0       ****    0 ROOT    
