@<TRIPOS>MOLECULE
3R135
127   129    1
SMALL
USER_CHARGES


@<TRIPOS>ATOM
      1 CA        -79.4142   22.1010  -71.0098 C.3       0 UNK        -0.1998 
      2 C         -79.8384   23.4240  -71.6277 C.2       0 UNK         0.4909 
      3 O         -79.1095   23.9684  -72.4568 O.2       0 UNK        -0.5240 
      4 N         -81.0134   23.9401  -71.2380 N.am      1 UNK        -0.4739 
      5 CA        -81.6097   25.1916  -71.7261 C.3       1 UNK         0.0864 
      6 C6        -80.8369   26.4409  -71.2096 C.3       11 UNK        -0.0881 
      7 S7        -81.8899   27.9282  -71.1681 S.3       11 UNK        -0.2682 
      8 C8        -80.8054   29.1145  -70.3129 C.3       11 UNK         0.0289 
      9 C9        -79.6471   29.5953  -71.1794 C.ar      11 UNK        -0.0687 
     10 C10       -79.8916   30.2003  -72.4169 C.ar      11 UNK        -0.0823 
     11 C11       -78.8383   30.6961  -73.1923 C.ar      11 UNK        -0.0830 
     12 C12       -77.5294   30.5989  -72.7079 C.ar      11 UNK        -0.1021 
     13 C13       -77.2712   29.9977  -71.4728 C.ar      11 UNK        -0.0753 
     14 C14       -78.3318   29.4890  -70.7173 C.ar      11 UNK        -0.0933 
     15 C15       -75.8508   29.9400  -70.9359 C.3       11 UNK         0.0166 
     16 S16       -75.0081   28.4039  -71.4176 S.3       11 UNK        -0.2615 
     17 C17       -73.3396   28.7441  -70.7574 C.3       11 UNK        -0.0865 
     18 CA        -72.3628   29.2261  -71.8688 C.3       10 UNK         0.0862 
     19 C         -71.0639   29.8843  -71.3059 C.2       10 UNK         0.5551 
     20 N         -69.9398   29.8249  -72.0098 N.am      10 UNK        -0.7319 
     21 O         -71.0783   30.4885  -70.2359 O.2       10 UNK        -0.5018 
     22 N         -72.1408   28.2011  -72.9057 N.am      10 UNK        -0.4509 
     23 C         -71.4861   27.0403  -72.7515 C.2       10 UNK         0.4899 
     24 O         -70.9755   26.6770  -71.6914 O.2       10 UNK        -0.4839 
     25 CA        -71.3725   26.1190  -73.9797 C.3       9 UNK         0.0222 
     26 CB        -72.0609   24.7687  -73.7178 C.3       9 UNK        -0.1966 
     27 N         -71.9443   26.7077  -75.1917 N.am      9 UNK        -0.4218 
     28 C         -71.2940   27.4942  -76.0590 C.2       9 UNK         0.5020 
     29 O         -70.1235   27.8518  -75.9124 O.2       9 UNK        -0.5274 
     30 CA        -72.1026   27.9534  -77.2902 C.3       8 UNK         0.0270 
     31 CB        -71.2243   28.5564  -78.4070 C.3       8 UNK        -0.1976 
     32 N         -72.9723   26.8922  -77.8148 N.am      8 UNK        -0.4313 
     33 C         -72.6010   25.6897  -78.2841 C.2       8 UNK         0.5041 
     34 O         -71.4286   25.3426  -78.4349 O.2       8 UNK        -0.5577 
     35 CA        -73.7141   24.6756  -78.6122 C.3       7 UNK         0.0284 
     36 CB        -73.7183   23.5450  -77.5695 C.3       7 UNK        -0.1958 
     37 N         -75.0547   25.2634  -78.6783 N.am      7 UNK        -0.4454 
     38 C         -75.5004   26.0392  -79.6754 C.2       7 UNK         0.5089 
     39 O         -74.8468   26.3012  -80.6853 O.2       7 UNK        -0.5125 
     40 CA        -76.8986   26.6563  -79.4987 C.3       6 UNK         0.0408 
     41 CB        -77.9863   25.6704  -79.9525 C.3       6 UNK        -0.1791 
     42 N         -77.1760   27.0863  -78.1251 N.am      6 UNK        -0.4762 
     43 C         -76.4956   28.0256  -77.4499 C.2       6 UNK         0.5007 
     44 O         -75.5310   28.6380  -77.9082 O.2       6 UNK        -0.5032 
     45 CA        -76.9341   28.2707  -75.9933 C.3       5 UNK         0.0783 
     46 C46       -78.2858   29.0294  -75.9172 C.3       11 UNK        -0.0857 
     47 S47       -78.0359   30.8351  -75.8912 S.3       11 UNK        -0.2512 
     48 C48       -79.1367   31.3630  -74.5330 C.3       11 UNK         0.0225 
     49 N         -76.9634   27.0139  -75.2456 N.am      5 UNK        -0.4615 
     50 C         -75.8866   26.2741  -74.9494 C.2       4 UNK         0.5053 
     51 O         -74.7314   26.6009  -75.2206 O.2       4 UNK        -0.5105 
     52 CA        -76.1451   24.9190  -74.2723 C.3       4 UNK         0.0263 
     53 CB        -76.1140   25.0711  -72.7440 C.3       4 UNK        -0.1981 
     54 N         -77.4143   24.3110  -74.6835 N.am      4 UNK        -0.4224 
     55 C         -77.6838   23.8976  -75.9311 C.2       3 UNK         0.4895 
     56 O         -76.8755   23.9481  -76.8578 O.2       3 UNK        -0.5091 
     57 CA        -79.1106   23.4007  -76.2082 C.3       3 UNK         0.0250 
     58 CB        -79.3339   22.0031  -75.6088 C.3       3 UNK        -0.1996 
     59 N         -80.1384   24.3201  -75.7151 N.am      3 UNK        -0.4254 
     60 C         -80.3078   25.5890  -76.1092 C.2       2 UNK         0.5004 
     61 O         -79.6038   26.1352  -76.9574 O.2       2 UNK        -0.5226 
     62 CA        -81.4160   26.4115  -75.4250 C.3       2 UNK         0.0269 
     63 CB        -82.7820   26.1785  -76.0985 C.3       2 UNK        -0.1926 
     64 N         -81.4817   26.2334  -73.9661 N.am      2 UNK        -0.4687 
     65 C         -81.8193   25.1437  -73.2607 C.2       1 UNK         0.5165 
     66 O         -82.2398   24.1046  -73.7765 O.2       1 UNK        -0.5079 
     67 H67       -78.4553   22.2156  -70.5051 H         1 UNK         0.0900 
     68 H68       -80.1403   21.7382  -70.2827 H         1 UNK         0.0900 
     69 H69       -79.3025   21.3450  -71.7863 H         1 UNK         0.0900 
     70 H70       -81.5816   23.4222  -70.5821 H         1 UNK         0.2959 
     71 H71       -82.6132   25.2148  -71.2978 H         1 UNK         0.1079 
     72 H72       -80.5004   26.2620  -70.1870 H         1 UNK         0.0837 
     73 H73       -79.9280   26.6290  -71.7854 H         1 UNK         0.0837 
     74 H74       -81.4008   29.9805  -70.0207 H         1 UNK         0.0685 
     75 H75       -80.4446   28.6655  -69.3861 H         1 UNK         0.0685 
     76 H76       -80.9102   30.2930  -72.7690 H         1 UNK         0.1434 
     77 H77       -76.7097   30.9965  -73.2905 H         1 UNK         0.1329 
     78 H78       -78.1319   29.0337  -69.7569 H         1 UNK         0.1335 
     79 H79       -75.8606   30.0211  -69.8477 H         1 UNK         0.0680 
     80 H80       -75.2801   30.7947  -71.3031 H         1 UNK         0.0680 
     81 H81       -73.4264   29.4847  -69.9606 H         1 UNK         0.1032 
     82 H82       -72.9602   27.8417  -70.2761 H         1 UNK         0.1032 
     83 H83       -72.8579   30.0476  -72.3879 H         1 UNK         0.0461 
     84 H84       -69.9167   29.3409  -72.8934 H         1 UNK         0.3453 
     85 H85       -69.1060   30.2611  -71.6489 H         1 UNK         0.3453 
     86 H86       -72.5334   28.4034  -73.8125 H         1 UNK         0.2984 
     87 H87       -70.3101   25.9279  -74.1441 H         1 UNK         0.0554 
     88 H88       -71.6237   24.2656  -72.8543 H         1 UNK         0.0847 
     89 H89       -71.9555   24.0974  -74.5702 H         1 UNK         0.0847 
     90 H90       -73.1244   24.8926  -73.5180 H         1 UNK         0.0847 
     91 H91       -72.9391   26.5404  -75.3456 H         1 UNK         0.3141 
     92 H92       -72.7700   28.7408  -76.9366 H         1 UNK         0.0743 
     93 H93       -70.6792   29.4295  -78.0464 H         1 UNK         0.0784 
     94 H94       -70.4865   27.8422  -78.7737 H         1 UNK         0.0784 
     95 H95       -71.8291   28.8797  -79.2543 H         1 UNK         0.0784 
     96 H96       -73.9654   27.0799  -77.7393 H         1 UNK         0.3213 
     97 H97       -73.4821   24.2419  -79.5872 H         1 UNK         0.0855 
     98 H98       -73.9401   23.9224  -76.5708 H         1 UNK         0.0814 
     99 H99       -72.7475   23.0498  -77.5226 H         1 UNK         0.0814 
    100 H100      -74.4589   22.7827  -77.8121 H         1 UNK         0.0814 
    101 H101      -75.6954   25.0279  -77.9232 H         1 UNK         0.3105 
    102 H102      -76.9528   27.5411  -80.1362 H         1 UNK         0.0547 
    103 H103      -78.9760   26.1256  -79.9108 H         1 UNK         0.0837 
    104 H104      -77.8194   25.3491  -80.9814 H         1 UNK         0.0837 
    105 H105      -78.0052   24.7760  -79.3286 H         1 UNK         0.0837 
    106 H106      -77.9705   26.6428  -77.6659 H         1 UNK         0.3020 
    107 H107      -76.1606   28.8820  -75.5213 H         1 UNK         0.1245 
    108 H108      -78.8257   28.7388  -75.0157 H         1 UNK         0.0781 
    109 H109      -78.9540   28.7772  -76.7429 H         1 UNK         0.0781 
    110 H110      -80.1673   31.1721  -74.8366 H         1 UNK         0.0836 
    111 H111      -79.0484   32.4433  -74.4116 H         1 UNK         0.0836 
    112 H112      -77.8723   26.6408  -75.0196 H         1 UNK         0.3022 
    113 H113      -75.3409   24.2421  -74.5658 H         1 UNK         0.0747 
    114 H114      -75.1673   25.4965  -72.4096 H         1 UNK         0.0793 
    115 H115      -76.9079   25.7295  -72.3882 H         1 UNK         0.0793 
    116 H116      -76.2308   24.1081  -72.2469 H         1 UNK         0.0793 
    117 H117      -78.1264   24.2119  -73.9592 H         1 UNK         0.3047 
    118 H118      -79.2282   23.3298  -77.2916 H         1 UNK         0.0822 
    119 H119      -78.5843   21.2985  -75.9717 H         1 UNK         0.0807 
    120 H120      -80.3112   21.6062  -75.8840 H         1 UNK         0.0807 
    121 H121      -79.2726   22.0138  -74.5200 H         1 UNK         0.0807 
    122 H122      -80.7736   23.9695  -75.0037 H         1 UNK         0.2946 
    123 H123      -81.1573   27.4604  -75.5803 H         1 UNK         0.1144 
    124 H124      -83.5566   26.7993  -75.6484 H         1 UNK         0.0793 
    125 H125      -83.1036   25.1389  -76.0318 H         1 UNK         0.0793 
    126 H126      -82.7380   26.4330  -77.1583 H         1 UNK         0.0793 
    127 H127      -81.1694   27.0302  -73.4259 H         1 UNK         0.2896 
@<TRIPOS>BOND
     1    1    2 1    
     2    1   67 1    
     3    1   68 1    
     4    1   69 1    
     5    2    3 2    
     6    2    4 am   BACKBONE|DICT|INTERRES
     7    4    5 1    
     8    4   70 1    
     9    5    6 1    
    10    5   65 1    
    11    5   71 1    
    12    6    7 1    
    13    6   72 1    
    14    6   73 1    
    15    7    8 1    
    16    8    9 1    
    17    8   74 1    
    18    8   75 1    
    19    9   10 ar   
    20    9   14 ar   
    21   10   11 ar   
    22   10   76 1    
    23   11   12 ar   
    24   11   48 1    
    25   12   13 ar   
    26   12   77 1    
    27   13   14 ar   
    28   13   15 1    
    29   14   78 1    
    30   15   16 1    
    31   15   79 1    
    32   15   80 1    
    33   16   17 1    
    34   17   18 1    
    35   17   81 1    
    36   17   82 1    
    37   18   19 1    
    38   18   22 1    
    39   18   83 1    
    40   19   20 am   BACKBONE|DICT|INTERRES
    41   19   21 2    
    42   20   84 1    
    43   20   85 1    
    44   22   23 am   BACKBONE|DICT|INTERRES
    45   22   86 1    
    46   23   24 2    
    47   23   25 1    
    48   25   26 1    
    49   25   27 1    
    50   25   87 1    
    51   26   88 1    
    52   26   89 1    
    53   26   90 1    
    54   27   28 am   BACKBONE|DICT|INTERRES
    55   27   91 1    
    56   28   29 2    
    57   28   30 1    
    58   30   31 1    
    59   30   32 1    
    60   30   92 1    
    61   31   93 1    
    62   31   94 1    
    63   31   95 1    
    64   32   33 am   BACKBONE|DICT|INTERRES
    65   32   96 1    
    66   33   34 2    
    67   33   35 1    
    68   35   36 1    
    69   35   37 1    
    70   35   97 1    
    71   36   98 1    
    72   36   99 1    
    73   36  100 1    
    74   37   38 am   BACKBONE|DICT|INTERRES
    75   37  101 1    
    76   38   39 2    
    77   38   40 1    
    78   40   41 1    
    79   40   42 1    
    80   40  102 1    
    81   41  103 1    
    82   41  104 1    
    83   41  105 1    
    84   42   43 am   BACKBONE|DICT|INTERRES
    85   42  106 1    
    86   43   44 2    
    87   43   45 1    
    88   45   46 1    
    89   45   49 1    
    90   45  107 1    
    91   46   47 1    
    92   46  108 1    
    93   46  109 1    
    94   47   48 1    
    95   48  110 1    
    96   48  111 1    
    97   49   50 am   BACKBONE|DICT|INTERRES
    98   49  112 1    
    99   50   51 2    
   100   50   52 1    
   101   52   53 1    
   102   52   54 1    
   103   52  113 1    
   104   53  114 1    
   105   53  115 1    
   106   53  116 1    
   107   54   55 am   BACKBONE|DICT|INTERRES
   108   54  117 1    
   109   55   56 2    
   110   55   57 1    
   111   57   58 1    
   112   57   59 1    
   113   57  118 1    
   114   58  119 1    
   115   58  120 1    
   116   58  121 1    
   117   59   60 am   BACKBONE|DICT|INTERRES
   118   59  122 1    
   119   60   61 2    
   120   60   62 1    
   121   62   63 1    
   122   62   64 1    
   123   62  123 1    
   124   63  124 1    
   125   63  125 1    
   126   63  126 1    
   127   64   65 am   BACKBONE|DICT|INTERRES
   128   64  127 1    
   129   65   66 2    
@<TRIPOS>SUBSTRUCTURE
     1 UNK         1 GROUP             0       ****    0 ROOT    
