@<TRIPOS>MOLECULE
3R135
127   129    1
SMALL
USER_CHARGES


@<TRIPOS>ATOM
      1 CA        -86.3318   26.9549  -73.8163 C.3       0 UNK        -0.1998 
      2 C         -84.8770   26.5119  -73.8290 C.2       0 UNK         0.4909 
      3 O         -84.6024   25.3188  -73.6935 O.2       0 UNK        -0.5240 
      4 N         -83.9469   27.4637  -73.9952 N.am      1 UNK        -0.4739 
      5 CA        -82.4888   27.2894  -74.0657 C.3       1 UNK         0.0864 
      6 C6        -81.8935   26.5955  -72.8084 C.3       11 UNK        -0.0881 
      7 S7        -80.0983   26.8523  -72.6456 S.3       11 UNK        -0.2682 
      8 C8        -80.0142   28.1018  -71.3278 C.3       11 UNK         0.0289 
      9 C9        -78.5962   28.6290  -71.1523 C.ar      11 UNK        -0.0687 
     10 C10       -78.1356   29.6717  -71.9622 C.ar      11 UNK        -0.0823 
     11 C11       -76.8513   30.1929  -71.7835 C.ar      11 UNK        -0.0830 
     12 C12       -76.0263   29.6645  -70.7868 C.ar      11 UNK        -0.1021 
     13 C13       -76.4542   28.5940  -69.9977 C.ar      11 UNK        -0.0753 
     14 C14       -77.7481   28.0883  -70.1780 C.ar      11 UNK        -0.0933 
     15 C15       -75.5276   27.9953  -68.9438 C.3       11 UNK         0.0166 
     16 S16       -74.1121   27.0922  -69.6720 S.3       11 UNK        -0.2615 
     17 C17       -72.8220   28.3810  -69.7877 C.3       11 UNK        -0.0865 
     18 CA        -72.4399   28.7729  -71.2422 C.3       10 UNK         0.0862 
     19 C         -71.5545   30.0561  -71.2303 C.2       10 UNK         0.5551 
     20 N         -70.2840   29.9946  -71.6112 N.am      10 UNK        -0.7319 
     21 O         -72.0318   31.1253  -70.8589 O.2       10 UNK        -0.5018 
     22 N         -71.8882   27.6359  -72.0070 N.am      10 UNK        -0.4509 
     23 C         -71.7315   27.6333  -73.3392 C.2       10 UNK         0.4899 
     24 O         -72.0309   28.5926  -74.0523 O.2       10 UNK        -0.4839 
     25 CA        -71.1295   26.3686  -73.9865 C.3       9 UNK         0.0222 
     26 CB        -71.5921   25.0646  -73.3091 C.3       9 UNK        -0.1966 
     27 N         -71.5021   26.3305  -75.4035 N.am      9 UNK        -0.4218 
     28 C         -70.7173   26.7017  -76.4235 C.2       9 UNK         0.5020 
     29 O         -69.5145   26.9444  -76.3001 O.2       9 UNK        -0.5274 
     30 CA        -71.3852   26.8841  -77.8050 C.3       8 UNK         0.0270 
     31 CB        -70.4063   26.6660  -78.9797 C.3       8 UNK        -0.1976 
     32 N         -72.6240   26.1182  -77.9965 N.am      8 UNK        -0.4313 
     33 C         -72.7688   24.7844  -78.0614 C.2       8 UNK         0.5041 
     34 O         -71.8297   23.9912  -77.9819 O.2       8 UNK        -0.5577 
     35 CA        -74.2005   24.2342  -78.2370 C.3       7 UNK         0.0284 
     36 CB        -74.4815   23.0830  -77.2531 C.3       7 UNK        -0.1958 
     37 N         -75.2127   25.2735  -78.0344 N.am      7 UNK        -0.4454 
     38 C         -75.9459   25.8593  -78.9908 C.2       7 UNK         0.5089 
     39 O         -75.8920   25.5463  -80.1800 O.2       7 UNK        -0.5125 
     40 CA        -76.8908   27.0001  -78.5586 C.3       6 UNK         0.0408 
     41 CB        -78.3533   26.5296  -78.5877 C.3       6 UNK        -0.1791 
     42 N         -76.5779   27.5443  -77.2312 N.am      6 UNK        -0.4762 
     43 C         -75.5151   28.3222  -76.9704 C.2       6 UNK         0.5007 
     44 O         -74.7213   28.6872  -77.8383 O.2       6 UNK        -0.5032 
     45 CA        -75.2328   28.6928  -75.4976 C.3       5 UNK         0.0783 
     46 C46       -75.8648   30.0590  -75.1343 C.3       11 UNK        -0.0857 
     47 S47       -74.9945   30.8483  -73.7399 S.3       11 UNK        -0.2512 
     48 C48       -76.3570   31.3479  -72.6407 C.3       11 UNK         0.0225 
     49 N         -75.6151   27.6323  -74.5556 N.am      5 UNK        -0.4615 
     50 C         -75.1481   26.3766  -74.5869 C.2       4 UNK         0.5053 
     51 O         -74.2915   25.9944  -75.3808 O.2       4 UNK        -0.5105 
     52 CA        -75.7652   25.3441  -73.6302 C.3       4 UNK         0.0263 
     53 CB        -76.4337   25.9795  -72.4032 C.3       4 UNK        -0.1981 
     54 N         -76.6990   24.4437  -74.3171 N.am      4 UNK        -0.4224 
     55 C         -77.7708   24.7905  -75.0461 C.2       3 UNK         0.4895 
     56 O         -78.0859   25.9573  -75.2888 O.2       3 UNK        -0.5091 
     57 CA        -78.6265   23.6485  -75.6183 C.3       3 UNK         0.0250 
     58 CB        -78.6178   22.3729  -74.7506 C.3       3 UNK        -0.1996 
     59 N         -80.0033   24.1180  -75.7643 N.am      3 UNK        -0.4254 
     60 C         -80.7689   23.9774  -76.8522 C.2       2 UNK         0.5004 
     61 O         -80.4050   23.3828  -77.8680 O.2       2 UNK        -0.5226 
     62 CA        -82.1873   24.5815  -76.8114 C.3       2 UNK         0.0269 
     63 CB        -83.2503   23.4747  -76.9186 C.3       2 UNK        -0.1926 
     64 N         -82.4690   25.3795  -75.6132 N.am      2 UNK        -0.4687 
     65 C         -82.0497   26.6319  -75.3936 C.2       1 UNK         0.5165 
     66 O         -81.3745   27.2721  -76.1998 O.2       1 UNK        -0.5079 
     67 H67       -86.8005   26.6735  -72.8738 H         1 UNK         0.0900 
     68 H68       -86.8774   26.4712  -74.6261 H         1 UNK         0.0900 
     69 H69       -86.4321   28.0334  -73.9360 H         1 UNK         0.0900 
     70 H70       -84.2581   28.4168  -74.1254 H         1 UNK         0.2959 
     71 H71       -82.0908   28.3056  -74.0881 H         1 UNK         0.1079 
     72 H72       -82.3818   26.9746  -71.9093 H         1 UNK         0.0837 
     73 H73       -82.0885   25.5221  -72.8151 H         1 UNK         0.0837 
     74 H74       -80.6865   28.9274  -71.5671 H         1 UNK         0.0685 
     75 H75       -80.3764   27.6674  -70.3946 H         1 UNK         0.0685 
     76 H76       -78.7851   30.0836  -72.7227 H         1 UNK         0.1434 
     77 H77       -75.0422   30.0837  -70.6361 H         1 UNK         0.1329 
     78 H78       -78.0963   27.2693  -69.5636 H         1 UNK         0.1335 
     79 H79       -75.1783   28.7785  -68.2700 H         1 UNK         0.0680 
     80 H80       -76.0827   27.2947  -68.3183 H         1 UNK         0.0680 
     81 H81       -71.9390   28.0227  -69.2555 H         1 UNK         0.1032 
     82 H82       -73.1564   29.2583  -69.2310 H         1 UNK         0.1032 
     83 H83       -73.3584   29.0594  -71.7558 H         1 UNK         0.0461 
     84 H84       -69.8856   29.1230  -71.9203 H         1 UNK         0.3453 
     85 H85       -69.7230   30.8316  -71.5988 H         1 UNK         0.3453 
     86 H86       -71.6252   26.8218  -71.4722 H         1 UNK         0.2984 
     87 H87       -70.0449   26.4360  -73.8838 H         1 UNK         0.0554 
     88 H88       -71.1951   24.9760  -72.2975 H         1 UNK         0.0847 
     89 H89       -71.2457   24.1907  -73.8613 H         1 UNK         0.0847 
     90 H90       -72.6767   25.0046  -73.2439 H         1 UNK         0.0847 
     91 H91       -72.4950   26.1915  -75.5838 H         1 UNK         0.3141 
     92 H92       -71.6910   27.9311  -77.8354 H         1 UNK         0.0743 
     93 H93       -69.5692   27.3632  -78.9275 H         1 UNK         0.0784 
     94 H94       -69.9884   25.6589  -78.9771 H         1 UNK         0.0784 
     95 H95       -70.8966   26.8244  -79.9402 H         1 UNK         0.0784 
     96 H96       -73.4644   26.6779  -78.0621 H         1 UNK         0.3213 
     97 H97       -74.2657   23.8376  -79.2523 H         1 UNK         0.0855 
     98 H98       -73.7989   22.2489  -77.4205 H         1 UNK         0.0814 
     99 H99       -75.4944   22.6981  -77.3710 H         1 UNK         0.0814 
    100 H100      -74.3599   23.3991  -76.2166 H         1 UNK         0.0814 
    101 H101      -75.2780   25.6281  -77.0859 H         1 UNK         0.3105 
    102 H102      -76.7854   27.8057  -79.2883 H         1 UNK         0.0547 
    103 H103      -78.6462   26.2291  -79.5944 H         1 UNK         0.0837 
    104 H104      -78.5125   25.6707  -77.9376 H         1 UNK         0.0837 
    105 H105      -79.0363   27.3186  -78.2719 H         1 UNK         0.0837 
    106 H106      -77.1622   27.2262  -76.4601 H         1 UNK         0.3020 
    107 H107      -74.1482   28.7945  -75.4360 H         1 UNK         0.1245 
    108 H108      -76.9276   29.9472  -74.9123 H         1 UNK         0.0781 
    109 H109      -75.8022   30.7580  -75.9711 H         1 UNK         0.0781 
    110 H110      -77.1659   31.7825  -73.2300 H         1 UNK         0.0836 
    111 H111      -75.9998   32.1431  -71.9847 H         1 UNK         0.0836 
    112 H112      -76.3336   27.8634  -73.8845 H         1 UNK         0.3022 
    113 H113      -74.9459   24.7223  -73.2700 H         1 UNK         0.0747 
    114 H114      -75.7467   26.6614  -71.9073 H         1 UNK         0.0793 
    115 H115      -77.3168   26.5524  -72.6744 H         1 UNK         0.0793 
    116 H116      -76.7335   25.2273  -71.6738 H         1 UNK         0.0793 
    117 H117      -76.5089   23.4582  -74.2034 H         1 UNK         0.3047 
    118 H118      -78.2062   23.4087  -76.5974 H         1 UNK         0.0822 
    119 H119      -79.3037   21.6246  -75.1486 H         1 UNK         0.0807 
    120 H120      -78.9182   22.5815  -73.7225 H         1 UNK         0.0807 
    121 H121      -77.6312   21.9090  -74.7251 H         1 UNK         0.0807 
    122 H122      -80.3488   24.6976  -75.0117 H         1 UNK         0.2946 
    123 H123      -82.2782   25.2296  -77.6862 H         1 UNK         0.1144 
    124 H124      -84.2562   23.8935  -76.9600 H         1 UNK         0.0793 
    125 H125      -83.2060   22.7909  -76.0698 H         1 UNK         0.0793 
    126 H126      -83.1114   22.8815  -77.8236 H         1 UNK         0.0793 
    127 H127      -83.0880   24.9716  -74.9182 H         1 UNK         0.2896 
@<TRIPOS>BOND
     1    1    2 1    
     2    1   67 1    
     3    1   68 1    
     4    1   69 1    
     5    2    3 2    
     6    2    4 am   BACKBONE|DICT|INTERRES
     7    4    5 1    
     8    4   70 1    
     9    5    6 1    
    10    5   65 1    
    11    5   71 1    
    12    6    7 1    
    13    6   72 1    
    14    6   73 1    
    15    7    8 1    
    16    8    9 1    
    17    8   74 1    
    18    8   75 1    
    19    9   10 ar   
    20    9   14 ar   
    21   10   11 ar   
    22   10   76 1    
    23   11   12 ar   
    24   11   48 1    
    25   12   13 ar   
    26   12   77 1    
    27   13   14 ar   
    28   13   15 1    
    29   14   78 1    
    30   15   16 1    
    31   15   79 1    
    32   15   80 1    
    33   16   17 1    
    34   17   18 1    
    35   17   81 1    
    36   17   82 1    
    37   18   19 1    
    38   18   22 1    
    39   18   83 1    
    40   19   20 am   BACKBONE|DICT|INTERRES
    41   19   21 2    
    42   20   84 1    
    43   20   85 1    
    44   22   23 am   BACKBONE|DICT|INTERRES
    45   22   86 1    
    46   23   24 2    
    47   23   25 1    
    48   25   26 1    
    49   25   27 1    
    50   25   87 1    
    51   26   88 1    
    52   26   89 1    
    53   26   90 1    
    54   27   28 am   BACKBONE|DICT|INTERRES
    55   27   91 1    
    56   28   29 2    
    57   28   30 1    
    58   30   31 1    
    59   30   32 1    
    60   30   92 1    
    61   31   93 1    
    62   31   94 1    
    63   31   95 1    
    64   32   33 am   BACKBONE|DICT|INTERRES
    65   32   96 1    
    66   33   34 2    
    67   33   35 1    
    68   35   36 1    
    69   35   37 1    
    70   35   97 1    
    71   36   98 1    
    72   36   99 1    
    73   36  100 1    
    74   37   38 am   BACKBONE|DICT|INTERRES
    75   37  101 1    
    76   38   39 2    
    77   38   40 1    
    78   40   41 1    
    79   40   42 1    
    80   40  102 1    
    81   41  103 1    
    82   41  104 1    
    83   41  105 1    
    84   42   43 am   BACKBONE|DICT|INTERRES
    85   42  106 1    
    86   43   44 2    
    87   43   45 1    
    88   45   46 1    
    89   45   49 1    
    90   45  107 1    
    91   46   47 1    
    92   46  108 1    
    93   46  109 1    
    94   47   48 1    
    95   48  110 1    
    96   48  111 1    
    97   49   50 am   BACKBONE|DICT|INTERRES
    98   49  112 1    
    99   50   51 2    
   100   50   52 1    
   101   52   53 1    
   102   52   54 1    
   103   52  113 1    
   104   53  114 1    
   105   53  115 1    
   106   53  116 1    
   107   54   55 am   BACKBONE|DICT|INTERRES
   108   54  117 1    
   109   55   56 2    
   110   55   57 1    
   111   57   58 1    
   112   57   59 1    
   113   57  118 1    
   114   58  119 1    
   115   58  120 1    
   116   58  121 1    
   117   59   60 am   BACKBONE|DICT|INTERRES
   118   59  122 1    
   119   60   61 2    
   120   60   62 1    
   121   62   63 1    
   122   62   64 1    
   123   62  123 1    
   124   63  124 1    
   125   63  125 1    
   126   63  126 1    
   127   64   65 am   BACKBONE|DICT|INTERRES
   128   64  127 1    
   129   65   66 2    
@<TRIPOS>SUBSTRUCTURE
     1 UNK         1 GROUP             0       ****    0 ROOT    
