@<TRIPOS>MOLECULE
3R135
127   129    1
SMALL
USER_CHARGES


@<TRIPOS>ATOM
      1 CA        -84.0710   25.5625  -75.6408 C.3       0 UNK        -0.1998 
      2 C         -83.6205   26.9590  -75.2378 C.2       0 UNK         0.4909 
      3 O         -84.4258   27.8905  -75.2564 O.2       0 UNK        -0.5240 
      4 N         -82.3431   27.1100  -74.8727 N.am      1 UNK        -0.4739 
      5 CA        -81.7341   28.3768  -74.4746 C.3       1 UNK         0.0864 
      6 C6        -81.9631   28.6864  -72.9685 C.3       11 UNK        -0.0881 
      7 S7        -81.2716   30.2951  -72.4386 S.3       11 UNK        -0.2682 
      8 C8        -80.8113   29.9754  -70.7044 C.3       11 UNK         0.0289 
      9 C9        -79.6076   29.0505  -70.5707 C.ar      11 UNK        -0.0687 
     10 C10       -79.7945   27.6938  -70.2909 C.ar      11 UNK        -0.0823 
     11 C11       -78.6990   26.8402  -70.1439 C.ar      11 UNK        -0.0830 
     12 C12       -77.4052   27.3578  -70.2477 C.ar      11 UNK        -0.1021 
     13 C13       -77.1997   28.7110  -70.5385 C.ar      11 UNK        -0.0753 
     14 C14       -78.3073   29.5529  -70.6970 C.ar      11 UNK        -0.0933 
     15 C15       -75.7834   29.2561  -70.6892 C.3       11 UNK         0.0166 
     16 S16       -74.8635   28.3714  -71.9884 S.3       11 UNK        -0.2615 
     17 C17       -73.3208   29.3393  -72.1127 C.3       11 UNK        -0.0865 
     18 CA        -73.3003   30.2866  -73.3424 C.3       10 UNK         0.0862 
     19 C         -71.9596   31.0658  -73.4103 C.2       10 UNK         0.5551 
     20 N         -71.9127   32.2705  -72.8587 N.am      10 UNK        -0.7319 
     21 O         -70.9544   30.5665  -73.9121 O.2       10 UNK        -0.5018 
     22 N         -73.5969   29.5647  -74.5883 N.am      10 UNK        -0.4509 
     23 C         -73.9013   30.1360  -75.7597 C.2       10 UNK         0.4899 
     24 O         -73.9271   31.3528  -75.9509 O.2       10 UNK        -0.4839 
     25 CA        -74.2884   29.1601  -76.8851 C.3       9 UNK         0.0222 
     26 CB        -74.7147   29.8619  -78.1921 C.3       9 UNK        -0.1966 
     27 N         -73.2543   28.1491  -77.1290 N.am      9 UNK        -0.4218 
     28 C         -72.0129   28.3431  -77.6006 C.2       9 UNK         0.5020 
     29 O         -71.5595   29.4442  -77.9153 O.2       9 UNK        -0.5274 
     30 CA        -71.1074   27.1021  -77.7452 C.3       8 UNK         0.0270 
     31 CB        -69.9027   27.2031  -76.7935 C.3       8 UNK        -0.1976 
     32 N         -71.7867   25.8267  -77.4977 N.am      8 UNK        -0.4313 
     33 C         -72.6743   25.2223  -78.2960 C.2       8 UNK         0.5041 
     34 O         -73.0166   25.6690  -79.3904 O.2       8 UNK        -0.5577 
     35 CA        -73.3230   23.9244  -77.7721 C.3       7 UNK         0.0284 
     36 CB        -72.4631   22.6931  -78.1201 C.3       7 UNK        -0.1958 
     37 N         -73.6862   23.9553  -76.3405 N.am      7 UNK        -0.4454 
     38 C         -72.8651   24.0110  -75.2801 C.2       7 UNK         0.5089 
     39 O         -71.6373   24.0118  -75.3765 O.2       7 UNK        -0.5125 
     40 CA        -73.4793   24.1627  -73.8818 C.3       6 UNK         0.0408 
     41 CB        -73.0875   25.5269  -73.2901 C.3       6 UNK        -0.1791 
     42 N         -74.9406   24.0564  -73.8511 N.am      6 UNK        -0.4762 
     43 C         -75.6055   23.0317  -73.2997 C.2       6 UNK         0.5007 
     44 O         -75.0771   21.9728  -72.9578 O.2       6 UNK        -0.5032 
     45 CA        -77.1069   23.2414  -73.0465 C.3       5 UNK         0.0783 
     46 C46       -77.3264   24.3018  -71.9383 C.3       11 UNK        -0.0857 
     47 S47       -79.0739   24.4253  -71.4351 S.3       11 UNK        -0.2512 
     48 C48       -78.9208   25.3591  -69.8787 C.3       11 UNK         0.0225 
     49 N         -77.7911   23.5948  -74.2889 N.am      5 UNK        -0.4615 
     50 C         -78.3830   22.7180  -75.1094 C.2       4 UNK         0.5053 
     51 O         -78.3832   21.5006  -74.9252 O.2       4 UNK        -0.5105 
     52 CA        -79.1284   23.2881  -76.3321 C.3       4 UNK         0.0263 
     53 CB        -80.6393   23.3431  -76.0525 C.3       4 UNK        -0.1981 
     54 N         -78.6692   24.6230  -76.7228 N.am      4 UNK        -0.4224 
     55 C         -77.4796   24.8810  -77.2816 C.2       3 UNK         0.4895 
     56 O         -76.6656   24.0127  -77.5883 O.2       3 UNK        -0.5091 
     57 CA        -77.1146   26.3619  -77.4700 C.3       3 UNK         0.0250 
     58 CB        -77.6295   26.8867  -78.8184 C.3       3 UNK        -0.1996 
     59 N         -77.6190   27.2119  -76.3868 N.am      3 UNK        -0.4254 
     60 C         -77.2337   27.1334  -75.1078 C.2       2 UNK         0.5004 
     61 O         -76.4058   26.3170  -74.7025 O.2       2 UNK        -0.5226 
     62 CA        -77.8836   28.1052  -74.1124 C.3       2 UNK         0.0269 
     63 CB        -77.4302   29.5573  -74.3570 C.3       2 UNK        -0.1926 
     64 N         -79.3462   28.0261  -74.0156 N.am      2 UNK        -0.4687 
     65 C         -80.2670   28.3470  -74.9360 C.2       1 UNK         0.5165 
     66 O         -80.0053   28.6117  -76.1107 O.2       1 UNK        -0.5079 
     67 H67       -84.9460   25.2692  -75.0614 H         1 UNK         0.0900 
     68 H68       -83.2937   24.8176  -75.4754 H         1 UNK         0.0900 
     69 H69       -84.3403   25.5454  -76.6964 H         1 UNK         0.0900 
     70 H70       -81.7176   26.3176  -74.8978 H         1 UNK         0.2959 
     71 H71       -82.2000   29.1821  -75.0481 H         1 UNK         0.1079 
     72 H72       -83.0345   28.7139  -72.7638 H         1 UNK         0.0837 
     73 H73       -81.5730   27.8778  -72.3526 H         1 UNK         0.0837 
     74 H74       -81.6723   29.5665  -70.1731 H         1 UNK         0.0685 
     75 H75       -80.5865   30.9285  -70.2234 H         1 UNK         0.0685 
     76 H76       -80.7957   27.2975  -70.1893 H         1 UNK         0.1434 
     77 H77       -76.5531   26.7025  -70.1294 H         1 UNK         0.1329 
     78 H78       -78.1612   30.6012  -70.9186 H         1 UNK         0.1335 
     79 H79       -75.8039   30.3195  -70.9326 H         1 UNK         0.0680 
     80 H80       -75.2558   29.1579  -69.7396 H         1 UNK         0.0680 
     81 H81       -73.1764   29.9052  -71.1903 H         1 UNK         0.1032 
     82 H82       -72.4889   28.6340  -72.1636 H         1 UNK         0.1032 
     83 H83       -74.1037   31.0139  -73.2059 H         1 UNK         0.0461 
     84 H84       -71.0454   32.7840  -72.8773 H         1 UNK         0.3453 
     85 H85       -72.7295   32.6842  -72.4367 H         1 UNK         0.3453 
     86 H86       -73.5930   28.5594  -74.5202 H         1 UNK         0.2984 
     87 H87       -75.1586   28.6163  -76.5217 H         1 UNK         0.0554 
     88 H88       -75.5732   30.5123  -78.0204 H         1 UNK         0.0847 
     89 H89       -75.0033   29.1386  -78.9546 H         1 UNK         0.0847 
     90 H90       -73.9171   30.4816  -78.6026 H         1 UNK         0.0847 
     91 H91       -73.5070   27.1979  -76.9069 H         1 UNK         0.3141 
     92 H92       -70.7360   27.0932  -78.7720 H         1 UNK         0.0743 
     93 H93       -69.3349   28.1172  -76.9734 H         1 UNK         0.0784 
     94 H94       -70.2152   27.2147  -75.7483 H         1 UNK         0.0784 
     95 H95       -69.2169   26.3667  -76.9301 H         1 UNK         0.0784 
     96 H96       -71.5479   25.3351  -76.6378 H         1 UNK         0.3213 
     97 H97       -74.2598   23.8145  -78.3176 H         1 UNK         0.0855 
     98 H98       -71.4769   22.7322  -77.6571 H         1 UNK         0.0814 
     99 H99       -72.3085   22.6225  -79.1976 H         1 UNK         0.0814 
    100 H100      -72.9473   21.7699  -77.8020 H         1 UNK         0.0814 
    101 H101      -74.6813   23.9683  -76.1556 H         1 UNK         0.3105 
    102 H102      -73.0269   23.3903  -73.2566 H         1 UNK         0.0547 
    103 H103      -72.0044   25.6537  -73.2607 H         1 UNK         0.0837 
    104 H104      -73.4988   26.3499  -73.8747 H         1 UNK         0.0837 
    105 H105      -73.4490   25.6305  -72.2670 H         1 UNK         0.0837 
    106 H106      -75.4613   24.8903  -74.1243 H         1 UNK         0.3020 
    107 H107      -77.5018   22.2923  -72.6752 H         1 UNK         0.1245 
    108 H108      -76.9885   25.2870  -72.2639 H         1 UNK         0.0781 
    109 H109      -76.7360   24.0510  -71.0546 H         1 UNK         0.0781 
    110 H110      -79.8327   25.2207  -69.2959 H         1 UNK         0.0836 
    111 H111      -78.1117   24.9503  -69.2716 H         1 UNK         0.0836 
    112 H112      -77.7871   24.5743  -74.5341 H         1 UNK         0.3022 
    113 H113      -78.9568   22.6085  -77.1698 H         1 UNK         0.0747 
    114 H114      -81.0273   22.3507  -75.8182 H         1 UNK         0.0793 
    115 H115      -81.1927   23.7086  -76.9178 H         1 UNK         0.0793 
    116 H116      -80.8682   23.9884  -75.2037 H         1 UNK         0.0793 
    117 H117      -79.2770   25.4008  -76.5143 H         1 UNK         0.3047 
    118 H118      -76.0249   26.4311  -77.4712 H         1 UNK         0.0822 
    119 H119      -77.2471   26.2839  -79.6434 H         1 UNK         0.0807 
    120 H120      -77.3074   27.9135  -78.9925 H         1 UNK         0.0807 
    121 H121      -78.7187   26.8641  -78.8727 H         1 UNK         0.0807 
    122 H122      -78.3630   27.8701  -76.6079 H         1 UNK         0.2946 
    123 H123      -77.5179   27.8104  -73.1296 H         1 UNK         0.1144 
    124 H124      -77.8647   30.2340  -73.6214 H         1 UNK         0.0793 
    125 H125      -77.7074   29.9184  -75.3477 H         1 UNK         0.0793 
    126 H126      -76.3498   29.6454  -74.2675 H         1 UNK         0.0793 
    127 H127      -79.6842   27.8114  -73.0874 H         1 UNK         0.2896 
@<TRIPOS>BOND
     1    1    2 1    
     2    1   67 1    
     3    1   68 1    
     4    1   69 1    
     5    2    3 2    
     6    2    4 am   BACKBONE|DICT|INTERRES
     7    4    5 1    
     8    4   70 1    
     9    5    6 1    
    10    5   65 1    
    11    5   71 1    
    12    6    7 1    
    13    6   72 1    
    14    6   73 1    
    15    7    8 1    
    16    8    9 1    
    17    8   74 1    
    18    8   75 1    
    19    9   10 ar   
    20    9   14 ar   
    21   10   11 ar   
    22   10   76 1    
    23   11   12 ar   
    24   11   48 1    
    25   12   13 ar   
    26   12   77 1    
    27   13   14 ar   
    28   13   15 1    
    29   14   78 1    
    30   15   16 1    
    31   15   79 1    
    32   15   80 1    
    33   16   17 1    
    34   17   18 1    
    35   17   81 1    
    36   17   82 1    
    37   18   19 1    
    38   18   22 1    
    39   18   83 1    
    40   19   20 am   BACKBONE|DICT|INTERRES
    41   19   21 2    
    42   20   84 1    
    43   20   85 1    
    44   22   23 am   BACKBONE|DICT|INTERRES
    45   22   86 1    
    46   23   24 2    
    47   23   25 1    
    48   25   26 1    
    49   25   27 1    
    50   25   87 1    
    51   26   88 1    
    52   26   89 1    
    53   26   90 1    
    54   27   28 am   BACKBONE|DICT|INTERRES
    55   27   91 1    
    56   28   29 2    
    57   28   30 1    
    58   30   31 1    
    59   30   32 1    
    60   30   92 1    
    61   31   93 1    
    62   31   94 1    
    63   31   95 1    
    64   32   33 am   BACKBONE|DICT|INTERRES
    65   32   96 1    
    66   33   34 2    
    67   33   35 1    
    68   35   36 1    
    69   35   37 1    
    70   35   97 1    
    71   36   98 1    
    72   36   99 1    
    73   36  100 1    
    74   37   38 am   BACKBONE|DICT|INTERRES
    75   37  101 1    
    76   38   39 2    
    77   38   40 1    
    78   40   41 1    
    79   40   42 1    
    80   40  102 1    
    81   41  103 1    
    82   41  104 1    
    83   41  105 1    
    84   42   43 am   BACKBONE|DICT|INTERRES
    85   42  106 1    
    86   43   44 2    
    87   43   45 1    
    88   45   46 1    
    89   45   49 1    
    90   45  107 1    
    91   46   47 1    
    92   46  108 1    
    93   46  109 1    
    94   47   48 1    
    95   48  110 1    
    96   48  111 1    
    97   49   50 am   BACKBONE|DICT|INTERRES
    98   49  112 1    
    99   50   51 2    
   100   50   52 1    
   101   52   53 1    
   102   52   54 1    
   103   52  113 1    
   104   53  114 1    
   105   53  115 1    
   106   53  116 1    
   107   54   55 am   BACKBONE|DICT|INTERRES
   108   54  117 1    
   109   55   56 2    
   110   55   57 1    
   111   57   58 1    
   112   57   59 1    
   113   57  118 1    
   114   58  119 1    
   115   58  120 1    
   116   58  121 1    
   117   59   60 am   BACKBONE|DICT|INTERRES
   118   59  122 1    
   119   60   61 2    
   120   60   62 1    
   121   62   63 1    
   122   62   64 1    
   123   62  123 1    
   124   63  124 1    
   125   63  125 1    
   126   63  126 1    
   127   64   65 am   BACKBONE|DICT|INTERRES
   128   64  127 1    
   129   65   66 2    
@<TRIPOS>SUBSTRUCTURE
     1 UNK         1 GROUP             0       ****    0 ROOT    
