@<TRIPOS>MOLECULE
3R135
127   129    1
SMALL
USER_CHARGES


@<TRIPOS>ATOM
      1 CA        -83.0116   25.4112  -72.4212 C.3       0 UNK        -0.1998 
      2 C         -84.1897   26.3160  -72.7757 C.2       0 UNK         0.4909 
      3 O         -85.2657   26.1421  -72.2059 O.2       0 UNK        -0.5240 
      4 N         -84.0578   27.2977  -73.6821 N.am      1 UNK        -0.4739 
      5 CA        -82.8973   27.6574  -74.5129 C.3       1 UNK         0.0864 
      6 C6        -81.6193   27.9813  -73.6824 C.3       11 UNK        -0.0881 
      7 S7        -80.6746   29.3853  -74.3685 S.3       11 UNK        -0.2682 
      8 C8        -80.2670   30.3463  -72.8726 C.3       11 UNK         0.0289 
      9 C9        -78.9756   29.8888  -72.1991 C.ar      11 UNK        -0.0687 
     10 C10       -78.8776   28.6198  -71.6178 C.ar      11 UNK        -0.0823 
     11 C11       -77.7104   28.2253  -70.9557 C.ar      11 UNK        -0.0830 
     12 C12       -76.6408   29.1185  -70.8547 C.ar      11 UNK        -0.1021 
     13 C13       -76.7247   30.3911  -71.4263 C.ar      11 UNK        -0.0753 
     14 C14       -77.8880   30.7645  -72.1074 C.ar      11 UNK        -0.0933 
     15 C15       -75.5794   31.3813  -71.2710 C.3       11 UNK         0.0166 
     16 S16       -74.3214   31.1788  -72.5676 S.3       11 UNK        -0.2615 
     17 C17       -73.3682   29.7569  -71.9307 C.3       11 UNK        -0.0865 
     18 CA        -71.9828   29.6315  -72.6142 C.3       10 UNK         0.0862 
     19 C         -71.1476   28.4949  -71.9752 C.2       10 UNK         0.5551 
     20 N         -70.0665   28.8296  -71.2847 N.am      10 UNK        -0.7319 
     21 O         -71.4921   27.3184  -72.0643 O.2       10 UNK        -0.5018 
     22 N         -72.1323   29.3835  -74.0498 N.am      10 UNK        -0.4509 
     23 C         -71.4998   30.0433  -75.0250 C.2       10 UNK         0.4899 
     24 O         -70.6807   30.9434  -74.8291 O.2       10 UNK        -0.4839 
     25 CA        -71.8665   29.6323  -76.4636 C.3       9 UNK         0.0222 
     26 CB        -70.9637   30.2794  -77.5360 C.3       9 UNK        -0.1966 
     27 N         -71.9366   28.1774  -76.6337 N.am      9 UNK        -0.4218 
     28 C         -70.9381   27.2903  -76.4973 C.2       9 UNK         0.5020 
     29 O         -69.7733   27.6046  -76.2472 O.2       9 UNK        -0.5274 
     30 CA        -71.2769   25.7932  -76.6503 C.3       8 UNK         0.0270 
     31 CB        -71.0150   25.0509  -75.3283 C.3       8 UNK        -0.1976 
     32 N         -72.6549   25.5310  -77.0767 N.am      8 UNK        -0.4313 
     33 C         -73.1327   25.7129  -78.3154 C.2       8 UNK         0.5041 
     34 O         -72.4385   26.0563  -79.2726 O.2       8 UNK        -0.5577 
     35 CA        -74.6497   25.5282  -78.5086 C.3       7 UNK         0.0284 
     36 CB        -74.9928   24.0520  -78.7603 C.3       7 UNK        -0.1958 
     37 N         -75.4394   26.0339  -77.3801 N.am      7 UNK        -0.4454 
     38 C         -75.4785   27.3158  -76.9863 C.2       7 UNK         0.5089 
     39 O         -74.8728   28.2255  -77.5515 O.2       7 UNK        -0.5125 
     40 CA        -76.2791   27.6250  -75.7118 C.3       6 UNK         0.0408 
     41 CB        -77.7795   27.7344  -76.0111 C.3       6 UNK        -0.1791 
     42 N         -76.0556   26.6184  -74.6744 N.am      6 UNK        -0.4762 
     43 C         -74.9012   26.4698  -74.0122 C.2       6 UNK         0.5007 
     44 O         -73.9179   27.1846  -74.2016 O.2       6 UNK        -0.5032 
     45 CA        -74.8105   25.2952  -73.0166 C.3       5 UNK         0.0783 
     46 C46       -75.3987   25.6596  -71.6277 C.3       11 UNK        -0.0857 
     47 S47       -77.2247   25.5614  -71.5416 S.3       11 UNK        -0.2512 
     48 C48       -77.6265   26.8466  -70.3189 C.3       11 UNK         0.0225 
     49 N         -75.3916   24.0600  -73.5548 N.am      5 UNK        -0.4615 
     50 C         -74.9531   23.4041  -74.6362 C.2       4 UNK         0.5053 
     51 O         -73.9528   23.7289  -75.2715 O.2       4 UNK        -0.5105 
     52 CA        -75.8013   22.2151  -75.1239 C.3       4 UNK         0.0263 
     53 CB        -75.3787   20.9247  -74.4043 C.3       4 UNK        -0.1981 
     54 N         -77.2497   22.4091  -74.9761 N.am      4 UNK        -0.4224 
     55 C         -77.9484   23.4302  -75.4933 C.2       3 UNK         0.4895 
     56 O         -77.4352   24.3370  -76.1535 O.2       3 UNK        -0.5091 
     57 CA        -79.4574   23.4523  -75.1886 C.3       3 UNK         0.0250 
     58 CB        -79.7284   23.5031  -73.6735 C.3       3 UNK        -0.1996 
     59 N         -80.1046   24.6096  -75.8070 N.am      3 UNK        -0.4254 
     60 C         -80.5471   24.6763  -77.0694 C.2       2 UNK         0.5004 
     61 O         -80.5415   23.7201  -77.8470 O.2       2 UNK        -0.5226 
     62 CA        -81.0723   26.0522  -77.5384 C.3       2 UNK         0.0269 
     63 CB        -82.0991   25.9412  -78.6866 C.3       2 UNK        -0.1926 
     64 N         -81.5859   26.8943  -76.4432 N.am      2 UNK        -0.4687 
     65 C         -82.6411   26.6420  -75.6528 C.2       1 UNK         0.5165 
     66 O         -83.3761   25.6611  -75.7885 O.2       1 UNK        -0.5079 
     67 H67       -83.3660   24.5090  -71.9232 H         1 UNK         0.0900 
     68 H68       -82.4603   25.0943  -73.3028 H         1 UNK         0.0900 
     69 H69       -82.3296   25.9186  -71.7400 H         1 UNK         0.0900 
     70 H70       -84.8833   27.8445  -73.8840 H         1 UNK         0.2959 
     71 H71       -83.2162   28.5720  -75.0164 H         1 UNK         0.1079 
     72 H72       -80.9583   27.1175  -73.5919 H         1 UNK         0.0837 
     73 H73       -81.9049   28.2394  -72.6620 H         1 UNK         0.0837 
     74 H74       -81.0889   30.3079  -72.1568 H         1 UNK         0.0685 
     75 H75       -80.1834   31.3935  -73.1671 H         1 UNK         0.0685 
     76 H76       -79.7117   27.9362  -71.6694 H         1 UNK         0.1434 
     77 H77       -75.7469   28.8293  -70.3199 H         1 UNK         0.1329 
     78 H78       -77.9550   31.7521  -72.5430 H         1 UNK         0.1335 
     79 H79       -75.9641   32.4012  -71.3205 H         1 UNK         0.0680 
     80 H80       -75.1218   31.2828  -70.2855 H         1 UNK         0.0680 
     81 H81       -73.2439   29.8745  -70.8526 H         1 UNK         0.1032 
     82 H82       -73.9548   28.8490  -72.0772 H         1 UNK         0.1032 
     83 H83       -71.4555   30.5749  -72.4567 H         1 UNK         0.0461 
     84 H84       -69.7786   29.7923  -71.2007 H         1 UNK         0.3453 
     85 H85       -69.5195   28.1032  -70.8498 H         1 UNK         0.3453 
     86 H86       -72.7496   28.6077  -74.2824 H         1 UNK         0.2984 
     87 H87       -72.8800   30.0002  -76.6293 H         1 UNK         0.0554 
     88 H88       -71.2646   29.9807  -78.5401 H         1 UNK         0.0847 
     89 H89       -69.9157   30.0086  -77.4045 H         1 UNK         0.0847 
     90 H90       -71.0241   31.3674  -77.4907 H         1 UNK         0.0847 
     91 H91       -72.8616   27.8185  -76.8386 H         1 UNK         0.3141 
     92 H92       -70.6033   25.3871  -77.4076 H         1 UNK         0.0743 
     93 H93       -71.6589   25.4189  -74.5281 H         1 UNK         0.0784 
     94 H94       -71.1870   23.9795  -75.4327 H         1 UNK         0.0784 
     95 H95       -69.9829   25.1810  -75.0002 H         1 UNK         0.0784 
     96 H96       -73.2792   25.1521  -76.3680 H         1 UNK         0.3213 
     97 H97       -74.9415   26.1004  -79.3919 H         1 UNK         0.0855 
     98 H98       -74.6849   23.4197  -77.9282 H         1 UNK         0.0814 
     99 H99       -74.4862   23.6827  -79.6528 H         1 UNK         0.0814 
    100 H100      -76.0634   23.9111  -78.9113 H         1 UNK         0.0814 
    101 H101      -76.0092   25.3609  -76.8712 H         1 UNK         0.3105 
    102 H102      -75.9422   28.5886  -75.3224 H         1 UNK         0.0547 
    103 H103      -77.9835   28.5745  -76.6759 H         1 UNK         0.0837 
    104 H104      -78.1659   26.8363  -76.4906 H         1 UNK         0.0837 
    105 H105      -78.3437   27.8968  -75.0943 H         1 UNK         0.0837 
    106 H106      -76.7963   25.9511  -74.5119 H         1 UNK         0.3020 
    107 H107      -73.7425   25.1090  -72.8776 H         1 UNK         0.1245 
    108 H108      -75.0606   26.6484  -71.3136 H         1 UNK         0.0781 
    109 H109      -75.0044   24.9687  -70.8811 H         1 UNK         0.0781 
    110 H110      -76.8939   26.8317  -69.5103 H         1 UNK         0.0836 
    111 H111      -78.5854   26.6025  -69.8593 H         1 UNK         0.0836 
    112 H112      -76.2300   23.7353  -73.0956 H         1 UNK         0.3022 
    113 H113      -75.6016   22.0880  -76.1892 H         1 UNK         0.0747 
    114 H114      -75.8921   20.0545  -74.8139 H         1 UNK         0.0793 
    115 H115      -74.3079   20.7484  -74.5173 H         1 UNK         0.0793 
    116 H116      -75.5906   20.9689  -73.3352 H         1 UNK         0.0793 
    117 H117      -77.7442   21.7034  -74.4495 H         1 UNK         0.3047 
    118 H118      -79.8913   22.5352  -75.5929 H         1 UNK         0.0822 
    119 H119      -79.3787   24.4356  -73.2307 H         1 UNK         0.0807 
    120 H120      -79.2419   22.6852  -73.1415 H         1 UNK         0.0807 
    121 H121      -80.7945   23.4158  -73.4667 H         1 UNK         0.0807 
    122 H122      -80.1144   25.4583  -75.2644 H         1 UNK         0.2946 
    123 H123      -80.2012   26.5732  -77.9390 H         1 UNK         0.1144 
    124 H124      -82.4475   26.9239  -79.0043 H         1 UNK         0.0793 
    125 H125      -82.9701   25.3520  -78.3988 H         1 UNK         0.0793 
    126 H126      -81.6582   25.4587  -79.5598 H         1 UNK         0.0793 
    127 H127      -81.0534   27.7340  -76.2504 H         1 UNK         0.2896 
@<TRIPOS>BOND
     1    1    2 1    
     2    1   67 1    
     3    1   68 1    
     4    1   69 1    
     5    2    3 2    
     6    2    4 am   BACKBONE|DICT|INTERRES
     7    4    5 1    
     8    4   70 1    
     9    5    6 1    
    10    5   65 1    
    11    5   71 1    
    12    6    7 1    
    13    6   72 1    
    14    6   73 1    
    15    7    8 1    
    16    8    9 1    
    17    8   74 1    
    18    8   75 1    
    19    9   10 ar   
    20    9   14 ar   
    21   10   11 ar   
    22   10   76 1    
    23   11   12 ar   
    24   11   48 1    
    25   12   13 ar   
    26   12   77 1    
    27   13   14 ar   
    28   13   15 1    
    29   14   78 1    
    30   15   16 1    
    31   15   79 1    
    32   15   80 1    
    33   16   17 1    
    34   17   18 1    
    35   17   81 1    
    36   17   82 1    
    37   18   19 1    
    38   18   22 1    
    39   18   83 1    
    40   19   20 am   BACKBONE|DICT|INTERRES
    41   19   21 2    
    42   20   84 1    
    43   20   85 1    
    44   22   23 am   BACKBONE|DICT|INTERRES
    45   22   86 1    
    46   23   24 2    
    47   23   25 1    
    48   25   26 1    
    49   25   27 1    
    50   25   87 1    
    51   26   88 1    
    52   26   89 1    
    53   26   90 1    
    54   27   28 am   BACKBONE|DICT|INTERRES
    55   27   91 1    
    56   28   29 2    
    57   28   30 1    
    58   30   31 1    
    59   30   32 1    
    60   30   92 1    
    61   31   93 1    
    62   31   94 1    
    63   31   95 1    
    64   32   33 am   BACKBONE|DICT|INTERRES
    65   32   96 1    
    66   33   34 2    
    67   33   35 1    
    68   35   36 1    
    69   35   37 1    
    70   35   97 1    
    71   36   98 1    
    72   36   99 1    
    73   36  100 1    
    74   37   38 am   BACKBONE|DICT|INTERRES
    75   37  101 1    
    76   38   39 2    
    77   38   40 1    
    78   40   41 1    
    79   40   42 1    
    80   40  102 1    
    81   41  103 1    
    82   41  104 1    
    83   41  105 1    
    84   42   43 am   BACKBONE|DICT|INTERRES
    85   42  106 1    
    86   43   44 2    
    87   43   45 1    
    88   45   46 1    
    89   45   49 1    
    90   45  107 1    
    91   46   47 1    
    92   46  108 1    
    93   46  109 1    
    94   47   48 1    
    95   48  110 1    
    96   48  111 1    
    97   49   50 am   BACKBONE|DICT|INTERRES
    98   49  112 1    
    99   50   51 2    
   100   50   52 1    
   101   52   53 1    
   102   52   54 1    
   103   52  113 1    
   104   53  114 1    
   105   53  115 1    
   106   53  116 1    
   107   54   55 am   BACKBONE|DICT|INTERRES
   108   54  117 1    
   109   55   56 2    
   110   55   57 1    
   111   57   58 1    
   112   57   59 1    
   113   57  118 1    
   114   58  119 1    
   115   58  120 1    
   116   58  121 1    
   117   59   60 am   BACKBONE|DICT|INTERRES
   118   59  122 1    
   119   60   61 2    
   120   60   62 1    
   121   62   63 1    
   122   62   64 1    
   123   62  123 1    
   124   63  124 1    
   125   63  125 1    
   126   63  126 1    
   127   64   65 am   BACKBONE|DICT|INTERRES
   128   64  127 1    
   129   65   66 2    
@<TRIPOS>SUBSTRUCTURE
     1 UNK         1 GROUP             0       ****    0 ROOT    
