@<TRIPOS>MOLECULE
3R135
127   129    1
SMALL
USER_CHARGES


@<TRIPOS>ATOM
      1 CA        -82.1924   21.1761  -73.8804 C.3       0 UNK        -0.1998 
      2 C         -82.1275   22.6331  -73.4507 C.2       0 UNK         0.4909 
      3 O         -82.9031   23.4496  -73.9485 O.2       0 UNK        -0.5240 
      4 N         -81.2041   22.9538  -72.5324 N.am      1 UNK        -0.4739 
      5 CA        -80.9234   24.2818  -71.9693 C.3       1 UNK         0.0864 
      6 C6        -79.7374   24.1828  -70.9686 C.3       11 UNK        -0.0881 
      7 S7        -79.1552   25.7743  -70.2813 S.3       11 UNK        -0.2682 
      8 C8        -77.5676   25.9546  -71.1606 C.3       11 UNK         0.0289 
      9 C9        -77.2006   27.4154  -71.3563 C.ar      11 UNK        -0.0687 
     10 C10       -77.8943   28.1887  -72.2924 C.ar      11 UNK        -0.0823 
     11 C11       -77.5407   29.5232  -72.5088 C.ar      11 UNK        -0.0830 
     12 C12       -76.5049   30.0896  -71.7625 C.ar      11 UNK        -0.1021 
     13 C13       -75.7844   29.3186  -70.8479 C.ar      11 UNK        -0.0753 
     14 C14       -76.1436   27.9836  -70.6396 C.ar      11 UNK        -0.0933 
     15 C15       -74.5996   29.9175  -70.1079 C.3       11 UNK         0.0166 
     16 S16       -73.0750   29.7957  -71.0990 S.3       11 UNK        -0.2615 
     17 C17       -73.1658   31.2800  -72.1660 C.3       11 UNK        -0.0865 
     18 CA        -73.6118   30.9981  -73.6356 C.3       10 UNK         0.0862 
     19 C         -73.7393   32.2938  -74.4932 C.2       10 UNK         0.5551 
     20 N         -74.3907   33.3285  -73.9772 N.am      10 UNK        -0.7319 
     21 O         -73.2861   32.3739  -75.6340 O.2       10 UNK        -0.5018 
     22 N         -72.8379   29.9398  -74.2990 N.am      10 UNK        -0.4509 
     23 C         -71.5179   29.9195  -74.5248 C.2       10 UNK         0.4899 
     24 O         -70.7343   30.7950  -74.1523 O.2       10 UNK        -0.4839 
     25 CA        -70.9964   28.7038  -75.3151 C.3       9 UNK         0.0222 
     26 CB        -69.4651   28.5267  -75.2337 C.3       9 UNK        -0.1966 
     27 N         -71.7030   27.4686  -74.9589 N.am      9 UNK        -0.4218 
     28 C         -71.7009   26.8231  -73.7818 C.2       9 UNK         0.5020 
     29 O         -70.9952   27.1322  -72.8211 O.2       9 UNK        -0.5274 
     30 CA        -72.6601   25.6236  -73.6453 C.3       8 UNK         0.0270 
     31 CB        -73.9108   26.0327  -72.8471 C.3       8 UNK        -0.1976 
     32 N         -73.0803   25.0626  -74.9326 N.am      8 UNK        -0.4313 
     33 C         -72.2837   24.4090  -75.7899 C.2       8 UNK         0.5041 
     34 O         -71.1134   24.1104  -75.5501 O.2       8 UNK        -0.5577 
     35 CA        -72.8837   24.0736  -77.1650 C.3       7 UNK         0.0284 
     36 CB        -73.6803   22.7593  -77.1146 C.3       7 UNK        -0.1958 
     37 N         -73.7349   25.1560  -77.6700 N.am      7 UNK        -0.4454 
     38 C         -73.2755   26.3197  -78.1532 C.2       7 UNK         0.5089 
     39 O         -72.0802   26.5910  -78.2609 O.2       7 UNK        -0.5125 
     40 CA        -74.3222   27.3704  -78.5664 C.3       6 UNK         0.0408 
     41 CB        -74.7367   27.1690  -80.0322 C.3       6 UNK        -0.1791 
     42 N         -75.5151   27.3641  -77.7157 N.am      6 UNK        -0.4762 
     43 C         -75.5328   27.7529  -76.4317 C.2       6 UNK         0.5007 
     44 O         -74.5418   28.1745  -75.8336 O.2       6 UNK        -0.5032 
     45 CA        -76.8645   27.5686  -75.6721 C.3       5 UNK         0.0783 
     46 C46       -77.8376   28.7554  -75.8836 C.3       11 UNK        -0.0857 
     47 S47       -77.3041   30.3311  -75.1336 S.3       11 UNK        -0.2512 
     48 C48       -78.2430   30.3519  -73.5713 C.3       11 UNK         0.0225 
     49 N         -77.5293   26.2966  -75.9911 N.am      5 UNK        -0.4615 
     50 C         -76.9972   25.0755  -75.8316 C.2       4 UNK         0.5053 
     51 O         -75.8487   24.8945  -75.4294 O.2       4 UNK        -0.5105 
     52 CA        -77.8629   23.8534  -76.1918 C.3       4 UNK         0.0263 
     53 CB        -77.7186   22.7406  -75.1372 C.3       4 UNK        -0.1981 
     54 N         -79.2779   24.2072  -76.3036 N.am      4 UNK        -0.4224 
     55 C         -80.0167   24.1785  -77.4214 C.2       3 UNK         0.4895 
     56 O         -79.5789   23.8312  -78.5184 O.2       3 UNK        -0.5091 
     57 CA        -81.4948   24.6092  -77.3127 C.3       3 UNK         0.0250 
     58 CB        -82.4236   23.3895  -77.4222 C.3       3 UNK        -0.1996 
     59 N         -81.8048   25.3432  -76.0809 N.am      3 UNK        -0.4254 
     60 C         -81.4180   26.6053  -75.8425 C.2       2 UNK         0.5004 
     61 O         -80.8272   27.2995  -76.6692 O.2       2 UNK        -0.5226 
     62 CA        -81.6720   27.1749  -74.4329 C.3       2 UNK         0.0269 
     63 CB        -82.9883   27.9667  -74.4032 C.3       2 UNK        -0.1926 
     64 N         -81.6859   26.1690  -73.3632 N.am      2 UNK        -0.4687 
     65 C         -80.6855   25.3190  -73.0891 C.2       1 UNK         0.5165 
     66 O         -79.6289   25.2958  -73.7185 O.2       1 UNK        -0.5079 
     67 H67       -83.2287   20.8419  -73.9211 H         1 UNK         0.0900 
     68 H68       -81.7552   21.0547  -74.8705 H         1 UNK         0.0900 
     69 H69       -81.6566   20.5254  -73.1893 H         1 UNK         0.0900 
     70 H70       -80.6039   22.2175  -72.1904 H         1 UNK         0.2959 
     71 H71       -81.8070   24.5911  -71.4081 H         1 UNK         0.1079 
     72 H72       -78.8954   23.6677  -71.4350 H         1 UNK         0.0837 
     73 H73       -80.0294   23.5535  -70.1264 H         1 UNK         0.0837 
     74 H74       -76.7920   25.4279  -70.6027 H         1 UNK         0.0685 
     75 H75       -77.6089   25.4782  -72.1404 H         1 UNK         0.0685 
     76 H76       -78.6936   27.7399  -72.8656 H         1 UNK         0.1434 
     77 H77       -76.2306   31.1220  -71.9268 H         1 UNK         0.1329 
     78 H78       -75.5867   27.3824  -69.9341 H         1 UNK         0.1335 
     79 H79       -74.4445   29.3857  -69.1680 H         1 UNK         0.0680 
     80 H80       -74.7989   30.9550  -69.8363 H         1 UNK         0.0680 
     81 H81       -72.1821   31.7517  -72.1598 H         1 UNK         0.1032 
     82 H82       -73.8308   32.0021  -71.6928 H         1 UNK         0.1032 
     83 H83       -74.6198   30.5903  -73.6075 H         1 UNK         0.0461 
     84 H84       -74.8005   33.2931  -73.0584 H         1 UNK         0.3453 
     85 H85       -74.4870   34.1641  -74.5325 H         1 UNK         0.3453 
     86 H86       -73.4001   29.2042  -74.7187 H         1 UNK         0.2984 
     87 H87       -71.2464   28.8953  -76.3597 H         1 UNK         0.0554 
     88 H88       -68.9508   29.3946  -75.6477 H         1 UNK         0.0847 
     89 H89       -69.1363   27.6550  -75.7994 H         1 UNK         0.0847 
     90 H90       -69.1231   28.4095  -74.2052 H         1 UNK         0.0847 
     91 H91       -72.3551   27.1342  -75.6555 H         1 UNK         0.3141 
     92 H92       -72.1359   24.8424  -73.0913 H         1 UNK         0.0743 
     93 H93       -74.4713   26.8214  -73.3505 H         1 UNK         0.0784 
     94 H94       -74.5839   25.1884  -72.6971 H         1 UNK         0.0784 
     95 H95       -73.6385   26.4119  -71.8611 H         1 UNK         0.0784 
     96 H96       -74.0630   25.1745  -75.1797 H         1 UNK         0.3213 
     97 H97       -72.0549   23.9377  -77.8636 H         1 UNK         0.0855 
     98 H98       -74.5203   22.8153  -76.4224 H         1 UNK         0.0814 
     99 H99       -73.0455   21.9353  -76.7860 H         1 UNK         0.0814 
    100 H100      -74.0711   22.4937  -78.0969 H         1 UNK         0.0814 
    101 H101      -74.7319   25.0397  -77.5634 H         1 UNK         0.3105 
    102 H102      -73.8539   28.3535  -78.4799 H         1 UNK         0.0547 
    103 H103      -73.8665   27.1943  -80.6897 H         1 UNK         0.0837 
    104 H104      -75.2329   26.2100  -80.1865 H         1 UNK         0.0837 
    105 H105      -75.4137   27.9559  -80.3651 H         1 UNK         0.0837 
    106 H106      -76.3716   27.0207  -78.1262 H         1 UNK         0.3020 
    107 H107      -76.6048   27.5207  -74.6134 H         1 UNK         0.1245 
    108 H108      -78.0128   28.9234  -76.9479 H         1 UNK         0.0781 
    109 H109      -78.8130   28.5065  -75.4675 H         1 UNK         0.0781 
    110 H110      -79.2642   30.0029  -73.7312 H         1 UNK         0.0836 
    111 H111      -78.3295   31.3845  -73.2297 H         1 UNK         0.0836 
    112 H112      -78.4799   26.3608  -76.3270 H         1 UNK         0.3022 
    113 H113      -77.4886   23.4720  -77.1435 H         1 UNK         0.0747 
    114 H114      -78.3295   21.8740  -75.3902 H         1 UNK         0.0793 
    115 H115      -76.6863   22.3965  -75.0634 H         1 UNK         0.0793 
    116 H116      -78.0192   23.0845  -74.1467 H         1 UNK         0.0793 
    117 H117      -79.6928   24.5524  -75.4412 H         1 UNK         0.3047 
    118 H118      -81.7009   25.2661  -78.1606 H         1 UNK         0.0822 
    119 H119      -83.4726   23.6851  -77.3962 H         1 UNK         0.0807 
    120 H120      -82.2553   22.6804  -76.6126 H         1 UNK         0.0807 
    121 H121      -82.2607   22.8570  -78.3602 H         1 UNK         0.0807 
    122 H122      -82.2706   24.8259  -75.3406 H         1 UNK         0.2946 
    123 H123      -80.8548   27.8653  -74.2170 H         1 UNK         0.1144 
    124 H124      -82.9975   28.7386  -75.1742 H         1 UNK         0.0793 
    125 H125      -83.1296   28.4676  -73.4453 H         1 UNK         0.0793 
    126 H126      -83.8506   27.3218  -74.5771 H         1 UNK         0.0793 
    127 H127      -82.5442   26.0878  -72.8367 H         1 UNK         0.2896 
@<TRIPOS>BOND
     1    1    2 1    
     2    1   67 1    
     3    1   68 1    
     4    1   69 1    
     5    2    3 2    
     6    2    4 am   BACKBONE|DICT|INTERRES
     7    4    5 1    
     8    4   70 1    
     9    5    6 1    
    10    5   65 1    
    11    5   71 1    
    12    6    7 1    
    13    6   72 1    
    14    6   73 1    
    15    7    8 1    
    16    8    9 1    
    17    8   74 1    
    18    8   75 1    
    19    9   10 ar   
    20    9   14 ar   
    21   10   11 ar   
    22   10   76 1    
    23   11   12 ar   
    24   11   48 1    
    25   12   13 ar   
    26   12   77 1    
    27   13   14 ar   
    28   13   15 1    
    29   14   78 1    
    30   15   16 1    
    31   15   79 1    
    32   15   80 1    
    33   16   17 1    
    34   17   18 1    
    35   17   81 1    
    36   17   82 1    
    37   18   19 1    
    38   18   22 1    
    39   18   83 1    
    40   19   20 am   BACKBONE|DICT|INTERRES
    41   19   21 2    
    42   20   84 1    
    43   20   85 1    
    44   22   23 am   BACKBONE|DICT|INTERRES
    45   22   86 1    
    46   23   24 2    
    47   23   25 1    
    48   25   26 1    
    49   25   27 1    
    50   25   87 1    
    51   26   88 1    
    52   26   89 1    
    53   26   90 1    
    54   27   28 am   BACKBONE|DICT|INTERRES
    55   27   91 1    
    56   28   29 2    
    57   28   30 1    
    58   30   31 1    
    59   30   32 1    
    60   30   92 1    
    61   31   93 1    
    62   31   94 1    
    63   31   95 1    
    64   32   33 am   BACKBONE|DICT|INTERRES
    65   32   96 1    
    66   33   34 2    
    67   33   35 1    
    68   35   36 1    
    69   35   37 1    
    70   35   97 1    
    71   36   98 1    
    72   36   99 1    
    73   36  100 1    
    74   37   38 am   BACKBONE|DICT|INTERRES
    75   37  101 1    
    76   38   39 2    
    77   38   40 1    
    78   40   41 1    
    79   40   42 1    
    80   40  102 1    
    81   41  103 1    
    82   41  104 1    
    83   41  105 1    
    84   42   43 am   BACKBONE|DICT|INTERRES
    85   42  106 1    
    86   43   44 2    
    87   43   45 1    
    88   45   46 1    
    89   45   49 1    
    90   45  107 1    
    91   46   47 1    
    92   46  108 1    
    93   46  109 1    
    94   47   48 1    
    95   48  110 1    
    96   48  111 1    
    97   49   50 am   BACKBONE|DICT|INTERRES
    98   49  112 1    
    99   50   51 2    
   100   50   52 1    
   101   52   53 1    
   102   52   54 1    
   103   52  113 1    
   104   53  114 1    
   105   53  115 1    
   106   53  116 1    
   107   54   55 am   BACKBONE|DICT|INTERRES
   108   54  117 1    
   109   55   56 2    
   110   55   57 1    
   111   57   58 1    
   112   57   59 1    
   113   57  118 1    
   114   58  119 1    
   115   58  120 1    
   116   58  121 1    
   117   59   60 am   BACKBONE|DICT|INTERRES
   118   59  122 1    
   119   60   61 2    
   120   60   62 1    
   121   62   63 1    
   122   62   64 1    
   123   62  123 1    
   124   63  124 1    
   125   63  125 1    
   126   63  126 1    
   127   64   65 am   BACKBONE|DICT|INTERRES
   128   64  127 1    
   129   65   66 2    
@<TRIPOS>SUBSTRUCTURE
     1 UNK         1 GROUP             0       ****    0 ROOT    
