@<TRIPOS>MOLECULE
3R135
127   129    1
SMALL
USER_CHARGES


@<TRIPOS>ATOM
      1 CA        -81.5292   22.6272  -72.6887 C.3       0 UNK        -0.1998 
      2 C         -80.2357   22.9968  -71.9679 C.2       0 UNK         0.4909 
      3 O         -79.3931   22.1275  -71.7586 O.2       0 UNK        -0.5240 
      4 N         -80.0292   24.2571  -71.5633 N.am      1 UNK        -0.4739 
      5 CA        -80.8685   25.4267  -71.8373 C.3       1 UNK         0.0864 
      6 C6        -80.7032   26.4826  -70.7200 C.3       11 UNK        -0.0881 
      7 S7        -81.9103   27.8463  -70.8467 S.3       11 UNK        -0.2682 
      8 C8        -80.9895   29.2260  -70.0926 C.3       11 UNK         0.0289 
      9 C9        -79.7677   29.6269  -70.9086 C.ar      11 UNK        -0.0687 
     10 C10       -79.9233   30.2843  -72.1329 C.ar      11 UNK        -0.0823 
     11 C11       -78.8074   30.6618  -72.8875 C.ar      11 UNK        -0.0830 
     12 C12       -77.5269   30.3926  -72.3922 C.ar      11 UNK        -0.1021 
     13 C13       -77.3588   29.7187  -71.1802 C.ar      11 UNK        -0.0753 
     14 C14       -78.4814   29.3443  -70.4380 C.ar      11 UNK        -0.0933 
     15 C15       -75.9607   29.3810  -70.6926 C.3       11 UNK         0.0166 
     16 S16       -75.3087   27.9424  -71.5916 S.3       11 UNK        -0.2615 
     17 C17       -73.5722   27.9364  -71.0327 C.3       11 UNK        -0.0865 
     18 CA        -72.6768   28.9430  -71.8035 C.3       10 UNK         0.0862 
     19 C         -71.2057   28.8424  -71.3182 C.2       10 UNK         0.5551 
     20 N         -70.7853   29.7216  -70.4192 N.am      10 UNK        -0.7319 
     21 O         -70.4640   27.9445  -71.7112 O.2       10 UNK        -0.5018 
     22 N         -72.8049   28.7772  -73.2566 N.am      10 UNK        -0.4509 
     23 C         -72.3190   29.6125  -74.1834 C.2       10 UNK         0.4899 
     24 O         -71.7144   30.6543  -73.9244 O.2       10 UNK        -0.4839 
     25 CA        -72.5898   29.2144  -75.6463 C.3       9 UNK         0.0222 
     26 CB        -71.7654   30.0223  -76.6712 C.3       9 UNK        -0.1966 
     27 N         -72.4568   27.7677  -75.8590 N.am      9 UNK        -0.4218 
     28 C         -71.3405   27.0335  -75.7336 C.2       9 UNK         0.5020 
     29 O         -70.2191   27.5023  -75.5356 O.2       9 UNK        -0.5274 
     30 CA        -71.4982   25.5097  -75.8192 C.3       8 UNK         0.0270 
     31 CB        -71.7106   24.9216  -74.4126 C.3       8 UNK        -0.1976 
     32 N         -72.6132   25.1076  -76.6816 N.am      8 UNK        -0.4313 
     33 C         -72.4718   24.6667  -77.9372 C.2       8 UNK         0.5041 
     34 O         -71.3945   24.6255  -78.5339 O.2       8 UNK        -0.5577 
     35 CA        -73.7309   24.1330  -78.6352 C.3       7 UNK         0.0284 
     36 CB        -74.0988   22.7446  -78.0852 C.3       7 UNK        -0.1958 
     37 N         -74.8896   25.0246  -78.5415 N.am      7 UNK        -0.4454 
     38 C         -75.0532   26.1158  -79.3030 C.2       7 UNK         0.5089 
     39 O         -74.1900   26.5566  -80.0628 O.2       7 UNK        -0.5125 
     40 CA        -76.4265   26.8084  -79.2473 C.3       6 UNK         0.0408 
     41 CB        -77.5024   25.9519  -79.9351 C.3       6 UNK        -0.1791 
     42 N         -76.8501   27.1210  -77.8848 N.am      6 UNK        -0.4762 
     43 C         -76.3208   28.0938  -77.1304 C.2       6 UNK         0.5007 
     44 O         -75.4492   28.8659  -77.5283 O.2       6 UNK        -0.5032 
     45 CA        -76.8306   28.1955  -75.6755 C.3       5 UNK         0.0783 
     46 C46       -78.1548   28.9993  -75.5985 C.3       11 UNK        -0.0857 
     47 S47       -77.8568   30.7991  -75.5432 S.3       11 UNK        -0.2512 
     48 C48       -79.0065   31.3536  -74.2343 C.3       11 UNK         0.0225 
     49 N         -76.9538   26.8776  -75.0440 N.am      5 UNK        -0.4615 
     50 C         -75.9572   25.9929  -74.9033 C.2       4 UNK         0.5053 
     51 O         -74.7899   26.2174  -75.2229 O.2       4 UNK        -0.5105 
     52 CA        -76.3338   24.5990  -74.3806 C.3       4 UNK         0.0263 
     53 CB        -76.3514   24.5729  -72.8447 C.3       4 UNK        -0.1981 
     54 N         -77.6256   24.1520  -74.9078 N.am      4 UNK        -0.4224 
     55 C         -77.8356   23.8015  -76.1855 C.2       3 UNK         0.4895 
     56 O         -76.9505   23.7704  -77.0386 O.2       3 UNK        -0.5091 
     57 CA        -79.2819   23.4765  -76.5960 C.3       3 UNK         0.0250 
     58 CB        -79.6551   22.0448  -76.1795 C.3       3 UNK        -0.1996 
     59 N         -80.2537   24.4214  -76.0420 N.am      3 UNK        -0.4254 
     60 C         -80.2913   25.7321  -76.3237 C.2       2 UNK         0.5004 
     61 O         -79.5589   26.2751  -77.1494 O.2       2 UNK        -0.5226 
     62 CA        -81.2740   26.5901  -75.5041 C.3       2 UNK         0.0269 
     63 CB        -82.6349   26.6737  -76.2124 C.3       2 UNK        -0.1926 
     64 N         -81.4677   26.1235  -74.1233 N.am      2 UNK        -0.4687 
     65 C         -80.4844   25.9837  -73.2216 C.2       1 UNK         0.5165 
     66 O         -79.3025   26.2337  -73.4638 O.2       1 UNK        -0.5079 
     67 H67       -81.5067   21.5820  -72.9975 H         1 UNK         0.0900 
     68 H68       -81.6794   23.2295  -73.5819 H         1 UNK         0.0900 
     69 H69       -82.3862   22.7564  -72.0281 H         1 UNK         0.0900 
     70 H70       -79.1542   24.4673  -71.1050 H         1 UNK         0.2959 
     71 H71       -81.9169   25.1235  -71.8489 H         1 UNK         0.1079 
     72 H72       -80.8457   26.0148  -69.7444 H         1 UNK         0.0837 
     73 H73       -79.6845   26.8721  -70.7177 H         1 UNK         0.0837 
     74 H74       -81.6559   30.0850  -70.0016 H         1 UNK         0.0685 
     75 H75       -80.7054   28.9521  -69.0752 H         1 UNK         0.0685 
     76 H76       -80.9196   30.4917  -72.4995 H         1 UNK         0.1434 
     77 H77       -76.6546   30.6789  -72.9635 H         1 UNK         0.1329 
     78 H78       -78.3534   28.8238  -69.4988 H         1 UNK         0.1335 
     79 H79       -75.3073   30.2411  -70.8440 H         1 UNK         0.0680 
     80 H80       -75.9614   29.1719  -69.6217 H         1 UNK         0.0680 
     81 H81       -73.5450   28.1405  -69.9605 H         1 UNK         0.1032 
     82 H82       -73.1909   26.9205  -71.1543 H         1 UNK         0.1032 
     83 H83       -73.0354   29.9485  -71.5757 H         1 UNK         0.0461 
     84 H84       -71.3893   30.4561  -70.0844 H         1 UNK         0.3453 
     85 H85       -69.8382   29.6594  -70.0794 H         1 UNK         0.3453 
     86 H86       -73.2898   27.9461  -73.5611 H         1 UNK         0.2984 
     87 H87       -73.6385   29.4519  -75.8173 H         1 UNK         0.0554 
     88 H88       -71.9962   29.7168  -77.6918 H         1 UNK         0.0847 
     89 H89       -70.6925   29.9050  -76.5178 H         1 UNK         0.0847 
     90 H90       -71.9874   31.0873  -76.5951 H         1 UNK         0.0847 
     91 H91       -73.3327   27.2615  -75.9540 H         1 UNK         0.3141 
     92 H92       -70.5604   25.1056  -76.2069 H         1 UNK         0.0743 
     93 H93       -70.8848   25.1878  -73.7510 H         1 UNK         0.0784 
     94 H94       -72.6266   25.2885  -73.9485 H         1 UNK         0.0784 
     95 H95       -71.7635   23.8333  -74.4428 H         1 UNK         0.0784 
     96 H96       -73.5434   25.1807  -76.2804 H         1 UNK         0.3213 
     97 H97       -73.4877   24.0086  -79.6931 H         1 UNK         0.0855 
     98 H98       -74.3702   22.7843  -77.0295 H         1 UNK         0.0814 
     99 H99       -73.2617   22.0516  -78.1809 H         1 UNK         0.0814 
    100 H100      -74.9398   22.3135  -78.6287 H         1 UNK         0.0814 
    101 H101      -75.6634   24.7067  -77.9596 H         1 UNK         0.3105 
    102 H102      -76.3484   27.7467  -79.8008 H         1 UNK         0.0547 
    103 H103      -78.4568   26.4770  -79.9779 H         1 UNK         0.0837 
    104 H104      -77.2163   25.7140  -80.9604 H         1 UNK         0.0837 
    105 H105      -77.6674   25.0082  -79.4142 H         1 UNK         0.0837 
    106 H106      -77.6178   26.5754  -77.5033 H         1 UNK         0.3020 
    107 H107      -76.0668   28.7245  -75.1009 H         1 UNK         0.1245 
    108 H108      -78.7086   28.7105  -74.7047 H         1 UNK         0.0781 
    109 H109      -78.8184   28.7757  -76.4356 H         1 UNK         0.0781 
    110 H110      -78.8855   32.4285  -74.0947 H         1 UNK         0.0836 
    111 H111      -80.0259   31.2024  -74.5929 H         1 UNK         0.0836 
    112 H112      -77.8681   26.6289  -74.6770 H         1 UNK         0.3022 
    113 H113      -75.5685   23.8980  -74.7210 H         1 UNK         0.0747 
    114 H114      -76.6111   23.5843  -72.4658 H         1 UNK         0.0793 
    115 H115      -77.0622   25.2894  -72.4321 H         1 UNK         0.0793 
    116 H116      -75.3694   24.8274  -72.4436 H         1 UNK         0.0793 
    117 H117      -78.4163   24.2296  -74.2847 H         1 UNK         0.3047 
    118 H118      -79.3383   23.5424  -77.6849 H         1 UNK         0.0822 
    119 H119      -78.9619   21.3222  -76.6128 H         1 UNK         0.0807 
    120 H120      -80.6543   21.7779  -76.5243 H         1 UNK         0.0807 
    121 H121      -79.6256   21.9133  -75.0972 H         1 UNK         0.0807 
    122 H122      -80.9168   24.0607  -75.3743 H         1 UNK         0.2946 
    123 H123      -80.8554   27.5970  -75.4523 H         1 UNK         0.1144 
    124 H124      -82.5204   27.0377  -77.2347 H         1 UNK         0.0793 
    125 H125      -83.3075   27.3620  -75.7003 H         1 UNK         0.0793 
    126 H126      -83.1249   25.7007  -76.2659 H         1 UNK         0.0793 
    127 H127      -82.4187   25.9219  -73.8483 H         1 UNK         0.2896 
@<TRIPOS>BOND
     1    1    2 1    
     2    1   67 1    
     3    1   68 1    
     4    1   69 1    
     5    2    3 2    
     6    2    4 am   BACKBONE|DICT|INTERRES
     7    4    5 1    
     8    4   70 1    
     9    5    6 1    
    10    5   65 1    
    11    5   71 1    
    12    6    7 1    
    13    6   72 1    
    14    6   73 1    
    15    7    8 1    
    16    8    9 1    
    17    8   74 1    
    18    8   75 1    
    19    9   10 ar   
    20    9   14 ar   
    21   10   11 ar   
    22   10   76 1    
    23   11   12 ar   
    24   11   48 1    
    25   12   13 ar   
    26   12   77 1    
    27   13   14 ar   
    28   13   15 1    
    29   14   78 1    
    30   15   16 1    
    31   15   79 1    
    32   15   80 1    
    33   16   17 1    
    34   17   18 1    
    35   17   81 1    
    36   17   82 1    
    37   18   19 1    
    38   18   22 1    
    39   18   83 1    
    40   19   20 am   BACKBONE|DICT|INTERRES
    41   19   21 2    
    42   20   84 1    
    43   20   85 1    
    44   22   23 am   BACKBONE|DICT|INTERRES
    45   22   86 1    
    46   23   24 2    
    47   23   25 1    
    48   25   26 1    
    49   25   27 1    
    50   25   87 1    
    51   26   88 1    
    52   26   89 1    
    53   26   90 1    
    54   27   28 am   BACKBONE|DICT|INTERRES
    55   27   91 1    
    56   28   29 2    
    57   28   30 1    
    58   30   31 1    
    59   30   32 1    
    60   30   92 1    
    61   31   93 1    
    62   31   94 1    
    63   31   95 1    
    64   32   33 am   BACKBONE|DICT|INTERRES
    65   32   96 1    
    66   33   34 2    
    67   33   35 1    
    68   35   36 1    
    69   35   37 1    
    70   35   97 1    
    71   36   98 1    
    72   36   99 1    
    73   36  100 1    
    74   37   38 am   BACKBONE|DICT|INTERRES
    75   37  101 1    
    76   38   39 2    
    77   38   40 1    
    78   40   41 1    
    79   40   42 1    
    80   40  102 1    
    81   41  103 1    
    82   41  104 1    
    83   41  105 1    
    84   42   43 am   BACKBONE|DICT|INTERRES
    85   42  106 1    
    86   43   44 2    
    87   43   45 1    
    88   45   46 1    
    89   45   49 1    
    90   45  107 1    
    91   46   47 1    
    92   46  108 1    
    93   46  109 1    
    94   47   48 1    
    95   48  110 1    
    96   48  111 1    
    97   49   50 am   BACKBONE|DICT|INTERRES
    98   49  112 1    
    99   50   51 2    
   100   50   52 1    
   101   52   53 1    
   102   52   54 1    
   103   52  113 1    
   104   53  114 1    
   105   53  115 1    
   106   53  116 1    
   107   54   55 am   BACKBONE|DICT|INTERRES
   108   54  117 1    
   109   55   56 2    
   110   55   57 1    
   111   57   58 1    
   112   57   59 1    
   113   57  118 1    
   114   58  119 1    
   115   58  120 1    
   116   58  121 1    
   117   59   60 am   BACKBONE|DICT|INTERRES
   118   59  122 1    
   119   60   61 2    
   120   60   62 1    
   121   62   63 1    
   122   62   64 1    
   123   62  123 1    
   124   63  124 1    
   125   63  125 1    
   126   63  126 1    
   127   64   65 am   BACKBONE|DICT|INTERRES
   128   64  127 1    
   129   65   66 2    
@<TRIPOS>SUBSTRUCTURE
     1 UNK         1 GROUP             0       ****    0 ROOT    
