@<TRIPOS>MOLECULE
3R135
127   129    1
SMALL
USER_CHARGES


@<TRIPOS>ATOM
      1 CA        -80.8934   29.9184  -76.2614 C.3       0 UNK        -0.1998 
      2 C         -81.6135   29.0957  -75.2033 C.2       0 UNK         0.4909 
      3 O         -82.7852   28.7632  -75.3834 O.2       0 UNK        -0.5240 
      4 N         -80.9119   28.7662  -74.1098 N.am      1 UNK        -0.4739 
      5 CA        -81.3832   27.9683  -72.9663 C.3       1 UNK         0.0864 
      6 C6        -82.4530   28.6782  -72.0915 C.3       11 UNK        -0.0881 
      7 S7        -81.9404   30.3274  -71.4989 S.3       11 UNK        -0.2682 
      8 C8        -81.1090   29.9338  -69.9252 C.3       11 UNK         0.0289 
      9 C9        -79.6626   29.5134  -70.1441 C.ar      11 UNK        -0.0687 
     10 C10       -79.2853   28.1690  -70.0480 C.ar      11 UNK        -0.0823 
     11 C11       -77.9597   27.7916  -70.2818 C.ar      11 UNK        -0.0830 
     12 C12       -77.0028   28.7725  -70.5435 C.ar      11 UNK        -0.1021 
     13 C13       -77.3668   30.1147  -70.6716 C.ar      11 UNK        -0.0753 
     14 C14       -78.7003   30.4787  -70.4614 C.ar      11 UNK        -0.0933 
     15 C15       -76.3306   31.1658  -71.0558 C.3       11 UNK         0.0166 
     16 S16       -75.5558   30.8150  -72.6742 S.3       11 UNK        -0.2615 
     17 C17       -74.1874   29.7002  -72.2012 C.3       11 UNK        -0.0865 
     18 CA        -72.8600   30.0637  -72.9074 C.3       10 UNK         0.0862 
     19 C         -71.6547   29.4030  -72.1859 C.2       10 UNK         0.5551 
     20 N         -70.7926   30.1904  -71.5581 N.am      10 UNK        -0.7319 
     21 O         -71.5286   28.1813  -72.1512 O.2       10 UNK        -0.5018 
     22 N         -72.8929   29.6712  -74.3205 N.am      10 UNK        -0.4509 
     23 C         -72.0304   30.1093  -75.2450 C.2       10 UNK         0.4899 
     24 O         -71.2215   31.0198  -75.0559 O.2       10 UNK        -0.4839 
     25 CA        -72.0753   29.3761  -76.5971 C.3       9 UNK         0.0222 
     26 CB        -70.9847   29.8415  -77.5848 C.3       9 UNK        -0.1966 
     27 N         -72.0405   27.9204  -76.4203 N.am      9 UNK        -0.4218 
     28 C         -71.0807   27.1805  -75.8404 C.2       9 UNK         0.5020 
     29 O         -70.0115   27.6331  -75.4291 O.2       9 UNK        -0.5274 
     30 CA        -71.3558   25.6719  -75.6813 C.3       8 UNK         0.0270 
     31 CB        -71.7461   25.3527  -74.2290 C.3       8 UNK        -0.1976 
     32 N         -72.3996   25.1693  -76.5787 N.am      8 UNK        -0.4313 
     33 C         -72.2648   25.0469  -77.9066 C.2       8 UNK         0.5041 
     34 O         -71.2102   25.2483  -78.5102 O.2       8 UNK        -0.5577 
     35 CA        -73.5275   24.6754  -78.7006 C.3       7 UNK         0.0284 
     36 CB        -73.7197   23.1509  -78.7238 C.3       7 UNK        -0.1958 
     37 N         -74.7399   25.3287  -78.1922 N.am      7 UNK        -0.4454 
     38 C         -74.9510   26.6541  -78.1962 C.2       7 UNK         0.5089 
     39 O         -74.1536   27.4710  -78.6543 O.2       7 UNK        -0.5125 
     40 CA        -76.2458   27.1665  -77.5445 C.3       6 UNK         0.0408 
     41 CB        -77.4458   26.9861  -78.4869 C.3       6 UNK        -0.1791 
     42 N         -76.5262   26.5193  -76.2644 N.am      6 UNK        -0.4762 
     43 C         -75.7877   26.6473  -75.1510 C.2       6 UNK         0.5007 
     44 O         -74.7970   27.3753  -75.0559 O.2       6 UNK        -0.5032 
     45 CA        -76.2247   25.7789  -73.9530 C.3       5 UNK         0.0783 
     46 C46       -77.3825   26.4714  -73.1889 C.3       11 UNK        -0.0857 
     47 S47       -78.0959   25.4772  -71.8255 S.3       11 UNK        -0.2512 
     48 C48       -77.5513   26.3254  -70.3022 C.3       11 UNK         0.0225 
     49 N         -76.5634   24.4178  -74.3853 N.am      5 UNK        -0.4615 
     50 C         -75.6995   23.5453  -74.9230 C.2       4 UNK         0.5053 
     51 O         -74.5075   23.7871  -75.1100 O.2       4 UNK        -0.5105 
     52 CA        -76.2714   22.1864  -75.3598 C.3       4 UNK         0.0263 
     53 CB        -76.4206   21.2487  -74.1513 C.3       4 UNK        -0.1981 
     54 N         -77.5579   22.3096  -76.0499 N.am      4 UNK        -0.4224 
     55 C         -77.7283   22.9113  -77.2366 C.2       3 UNK         0.4895 
     56 O         -76.8114   23.3901  -77.9007 O.2       3 UNK        -0.5091 
     57 CA        -79.1739   23.0546  -77.7435 C.3       3 UNK         0.0250 
     58 CB        -79.6199   21.7807  -78.4785 C.3       3 UNK        -0.1996 
     59 N         -80.1325   23.3764  -76.6804 N.am      3 UNK        -0.4254 
     60 C         -80.0554   24.4613  -75.8983 C.2       2 UNK         0.5004 
     61 O         -79.1705   25.3186  -75.9995 O.2       2 UNK        -0.5226 
     62 CA        -81.1060   24.5856  -74.7896 C.3       2 UNK         0.0269 
     63 CB        -80.8961   23.5030  -73.7103 C.3       2 UNK        -0.1926 
     64 N         -80.9646   25.9180  -74.2164 N.am      2 UNK        -0.4687 
     65 C         -81.7989   26.5384  -73.3786 C.2       1 UNK         0.5165 
     66 O         -82.8406   26.0350  -72.9528 O.2       1 UNK        -0.5079 
     67 H67       -81.4179   30.8592  -76.4261 H         1 UNK         0.0900 
     68 H68       -80.8653   29.3735  -77.2046 H         1 UNK         0.0900 
     69 H69       -79.8678   30.1484  -75.9730 H         1 UNK         0.0900 
     70 H70       -79.9613   29.0983  -74.0284 H         1 UNK         0.2959 
     71 H71       -80.5020   27.8196  -72.3463 H         1 UNK         0.1079 
     72 H72       -83.3779   28.8008  -72.6579 H         1 UNK         0.0837 
     73 H73       -82.7130   28.0637  -71.2277 H         1 UNK         0.0837 
     74 H74       -81.1284   30.8211  -69.2906 H         1 UNK         0.0685 
     75 H75       -81.6656   29.1657  -69.3862 H         1 UNK         0.0685 
     76 H76       -80.0271   27.4124  -69.8309 H         1 UNK         0.1434 
     77 H77       -75.9786   28.4734  -70.6979 H         1 UNK         0.1329 
     78 H78       -78.9981   31.5142  -70.5560 H         1 UNK         0.1335 
     79 H79       -76.7995   32.1490  -71.1178 H         1 UNK         0.0680 
     80 H80       -75.5742   31.2443  -70.2741 H         1 UNK         0.0680 
     81 H81       -74.4689   28.6703  -72.4288 H         1 UNK         0.1032 
     82 H82       -74.0566   29.7472  -71.1185 H         1 UNK         0.1032 
     83 H83       -72.7362   31.1479  -72.8582 H         1 UNK         0.0461 
     84 H84       -70.8915   31.1935  -71.5818 H         1 UNK         0.3453 
     85 H85       -70.0144   29.7747  -71.0707 H         1 UNK         0.3453 
     86 H86       -73.5118   28.9024  -74.5576 H         1 UNK         0.2984 
     87 H87       -73.0444   29.6069  -77.0419 H         1 UNK         0.0554 
     88 H88       -71.0618   29.3131  -78.5351 H         1 UNK         0.0847 
     89 H89       -69.9812   29.6789  -77.1905 H         1 UNK         0.0847 
     90 H90       -71.0810   30.9069  -77.7972 H         1 UNK         0.0847 
     91 H91       -72.8778   27.4371  -76.7195 H         1 UNK         0.3141 
     92 H92       -70.4280   25.1435  -75.9102 H         1 UNK         0.0743 
     93 H93       -72.6721   25.8529  -73.9424 H         1 UNK         0.0784 
     94 H94       -71.8823   24.2816  -74.0789 H         1 UNK         0.0784 
     95 H95       -70.9721   25.6826  -73.5346 H         1 UNK         0.0784 
     96 H96       -73.2793   24.8942  -76.1477 H         1 UNK         0.3213 
     97 H97       -73.3788   25.0136  -79.7284 H         1 UNK         0.0855 
     98 H98       -73.9220   22.7547  -77.7283 H         1 UNK         0.0814 
     99 H99       -72.8274   22.6494  -79.1008 H         1 UNK         0.0814 
    100 H100      -74.5482   22.8660  -79.3725 H         1 UNK         0.0814 
    101 H101      -75.4790   24.7143  -77.8566 H         1 UNK         0.3105 
    102 H102      -76.1233   28.2350  -77.3547 H         1 UNK         0.0547 
    103 H103      -77.2742   27.4906  -79.4385 H         1 UNK         0.0837 
    104 H104      -77.6360   25.9347  -78.7038 H         1 UNK         0.0837 
    105 H105      -78.3547   27.4059  -78.0553 H         1 UNK         0.0837 
    106 H106      -77.3520   25.9260  -76.2272 H         1 UNK         0.3020 
    107 H107      -75.3683   25.7032  -73.2791 H         1 UNK         0.1245 
    108 H108      -78.2016   26.7002  -73.8712 H         1 UNK         0.0781 
    109 H109      -77.0443   27.4367  -72.8165 H         1 UNK         0.0781 
    110 H110      -76.4695   26.2209  -70.2058 H         1 UNK         0.0836 
    111 H111      -77.9834   25.8161  -69.4397 H         1 UNK         0.0836 
    112 H112      -77.5315   24.1523  -74.2886 H         1 UNK         0.3022 
    113 H113      -75.5600   21.7357  -76.0551 H         1 UNK         0.0747 
    114 H114      -76.7456   20.2545  -74.4585 H         1 UNK         0.0793 
    115 H115      -75.4687   21.1299  -73.6315 H         1 UNK         0.0793 
    116 H116      -77.1418   21.6296  -73.4268 H         1 UNK         0.0793 
    117 H117      -78.3704   21.9425  -75.5771 H         1 UNK         0.3047 
    118 H118      -79.1872   23.8815  -78.4568 H         1 UNK         0.0822 
    119 H119      -80.6048   21.9064  -78.9288 H         1 UNK         0.0807 
    120 H120      -79.6627   20.9196  -77.8105 H         1 UNK         0.0807 
    121 H121      -78.9273   21.5338  -79.2846 H         1 UNK         0.0807 
    122 H122      -80.8871   22.7205  -76.5360 H         1 UNK         0.2946 
    123 H123      -82.1003   24.4930  -75.2318 H         1 UNK         0.1144 
    124 H124      -81.0216   22.5016  -74.1231 H         1 UNK         0.0793 
    125 H125      -81.6153   23.5999  -72.8972 H         1 UNK         0.0793 
    126 H126      -79.8975   23.5538  -73.2762 H         1 UNK         0.0793 
    127 H127      -80.1584   26.4159  -74.5745 H         1 UNK         0.2896 
@<TRIPOS>BOND
     1    1    2 1    
     2    1   67 1    
     3    1   68 1    
     4    1   69 1    
     5    2    3 2    
     6    2    4 am   BACKBONE|DICT|INTERRES
     7    4    5 1    
     8    4   70 1    
     9    5    6 1    
    10    5   65 1    
    11    5   71 1    
    12    6    7 1    
    13    6   72 1    
    14    6   73 1    
    15    7    8 1    
    16    8    9 1    
    17    8   74 1    
    18    8   75 1    
    19    9   10 ar   
    20    9   14 ar   
    21   10   11 ar   
    22   10   76 1    
    23   11   12 ar   
    24   11   48 1    
    25   12   13 ar   
    26   12   77 1    
    27   13   14 ar   
    28   13   15 1    
    29   14   78 1    
    30   15   16 1    
    31   15   79 1    
    32   15   80 1    
    33   16   17 1    
    34   17   18 1    
    35   17   81 1    
    36   17   82 1    
    37   18   19 1    
    38   18   22 1    
    39   18   83 1    
    40   19   20 am   BACKBONE|DICT|INTERRES
    41   19   21 2    
    42   20   84 1    
    43   20   85 1    
    44   22   23 am   BACKBONE|DICT|INTERRES
    45   22   86 1    
    46   23   24 2    
    47   23   25 1    
    48   25   26 1    
    49   25   27 1    
    50   25   87 1    
    51   26   88 1    
    52   26   89 1    
    53   26   90 1    
    54   27   28 am   BACKBONE|DICT|INTERRES
    55   27   91 1    
    56   28   29 2    
    57   28   30 1    
    58   30   31 1    
    59   30   32 1    
    60   30   92 1    
    61   31   93 1    
    62   31   94 1    
    63   31   95 1    
    64   32   33 am   BACKBONE|DICT|INTERRES
    65   32   96 1    
    66   33   34 2    
    67   33   35 1    
    68   35   36 1    
    69   35   37 1    
    70   35   97 1    
    71   36   98 1    
    72   36   99 1    
    73   36  100 1    
    74   37   38 am   BACKBONE|DICT|INTERRES
    75   37  101 1    
    76   38   39 2    
    77   38   40 1    
    78   40   41 1    
    79   40   42 1    
    80   40  102 1    
    81   41  103 1    
    82   41  104 1    
    83   41  105 1    
    84   42   43 am   BACKBONE|DICT|INTERRES
    85   42  106 1    
    86   43   44 2    
    87   43   45 1    
    88   45   46 1    
    89   45   49 1    
    90   45  107 1    
    91   46   47 1    
    92   46  108 1    
    93   46  109 1    
    94   47   48 1    
    95   48  110 1    
    96   48  111 1    
    97   49   50 am   BACKBONE|DICT|INTERRES
    98   49  112 1    
    99   50   51 2    
   100   50   52 1    
   101   52   53 1    
   102   52   54 1    
   103   52  113 1    
   104   53  114 1    
   105   53  115 1    
   106   53  116 1    
   107   54   55 am   BACKBONE|DICT|INTERRES
   108   54  117 1    
   109   55   56 2    
   110   55   57 1    
   111   57   58 1    
   112   57   59 1    
   113   57  118 1    
   114   58  119 1    
   115   58  120 1    
   116   58  121 1    
   117   59   60 am   BACKBONE|DICT|INTERRES
   118   59  122 1    
   119   60   61 2    
   120   60   62 1    
   121   62   63 1    
   122   62   64 1    
   123   62  123 1    
   124   63  124 1    
   125   63  125 1    
   126   63  126 1    
   127   64   65 am   BACKBONE|DICT|INTERRES
   128   64  127 1    
   129   65   66 2    
@<TRIPOS>SUBSTRUCTURE
     1 UNK         1 GROUP             0       ****    0 ROOT    
