@<TRIPOS>MOLECULE
3R135
127   129    1
SMALL
USER_CHARGES


@<TRIPOS>ATOM
      1 CA        -76.5377   25.8677  -71.8429 C.3       0 UNK        -0.1998 
      2 C         -77.9248   25.3405  -71.5136 C.2       0 UNK         0.4909 
      3 O         -78.0464   24.4102  -70.7163 O.2       0 UNK        -0.5240 
      4 N         -78.9620   25.9178  -72.1294 N.am      1 UNK        -0.4739 
      5 CA        -80.3671   25.5352  -71.9597 C.3       1 UNK         0.0864 
      6 C6        -81.2011   26.6458  -71.2678 C.3       11 UNK        -0.0881 
      7 S7        -80.4956   27.1801  -69.6681 S.3       11 UNK        -0.2682 
      8 C8        -80.2134   28.9624  -69.9322 C.3       11 UNK         0.0289 
      9 C9        -79.2019   29.2575  -71.0344 C.ar      11 UNK        -0.0687 
     10 C10       -79.6418   29.6763  -72.2941 C.ar      11 UNK        -0.0823 
     11 C11       -78.7283   29.9962  -73.3021 C.ar      11 UNK        -0.0830 
     12 C12       -77.3586   29.9000  -73.0361 C.ar      11 UNK        -0.1021 
     13 C13       -76.9030   29.4826  -71.7832 C.ar      11 UNK        -0.0753 
     14 C14       -77.8288   29.1602  -70.7848 C.ar      11 UNK        -0.0933 
     15 C15       -75.4085   29.3951  -71.5188 C.3       11 UNK         0.0166 
     16 S16       -74.6860   31.0526  -71.3233 S.3       11 UNK        -0.2615 
     17 C17       -72.9164   30.6547  -71.1307 C.3       11 UNK        -0.0865 
     18 CA        -72.0603   31.0903  -72.3502 C.3       10 UNK         0.0862 
     19 C         -70.5432   30.9519  -72.0195 C.2       10 UNK         0.5551 
     20 N         -69.8021   30.0322  -72.6271 N.am      10 UNK        -0.7319 
     21 O         -70.0299   31.7003  -71.1914 O.2       10 UNK        -0.5018 
     22 N         -72.4807   30.4115  -73.5876 N.am      10 UNK        -0.4509 
     23 C         -72.1056   30.7636  -74.8253 C.2       10 UNK         0.4899 
     24 O         -71.4888   31.7999  -75.0778 O.2       10 UNK        -0.4839 
     25 CA        -72.4670   29.7914  -75.9725 C.3       9 UNK         0.0222 
     26 CB        -71.4459   29.8430  -77.1280 C.3       9 UNK        -0.1966 
     27 N         -72.6798   28.3978  -75.5508 N.am      9 UNK        -0.4218 
     28 C         -71.8232   27.6134  -74.8755 C.2       9 UNK         0.5020 
     29 O         -70.7047   27.9724  -74.5043 O.2       9 UNK        -0.5274 
     30 CA        -72.3163   26.2093  -74.5016 C.3       8 UNK         0.0270 
     31 CB        -73.2929   26.2804  -73.3167 C.3       8 UNK        -0.1976 
     32 N         -72.9510   25.5088  -75.6171 N.am      8 UNK        -0.4313 
     33 C         -72.2929   24.9959  -76.6656 C.2       8 UNK         0.5041 
     34 O         -71.0732   25.0731  -76.8190 O.2       8 UNK        -0.5577 
     35 CA        -73.1385   24.2602  -77.7159 C.3       7 UNK         0.0284 
     36 CB        -73.5444   22.8631  -77.2166 C.3       7 UNK        -0.1958 
     37 N         -74.3330   25.0228  -78.0755 N.am      7 UNK        -0.4454 
     38 C         -74.3390   26.0580  -78.9255 C.2       7 UNK         0.5089 
     39 O         -73.3468   26.4459  -79.5429 O.2       7 UNK        -0.5125 
     40 CA        -75.6796   26.7847  -79.1292 C.3       6 UNK         0.0408 
     41 CB        -76.4203   26.2127  -80.3480 C.3       6 UNK        -0.1791 
     42 N         -76.5594   26.7266  -77.9594 N.am      6 UNK        -0.4762 
     43 C         -76.3263   27.3705  -76.8054 C.2       6 UNK         0.5007 
     44 O         -75.3151   28.0369  -76.5830 O.2       6 UNK        -0.5032 
     45 CA        -77.3756   27.1896  -75.6865 C.3       5 UNK         0.0783 
     46 C46       -78.6436   28.0440  -75.9524 C.3       11 UNK        -0.0857 
     47 S47       -78.3270   29.8384  -76.0838 S.3       11 UNK        -0.2512 
     48 C48       -79.2411   30.4961  -74.6498 C.3       11 UNK         0.0225 
     49 N         -77.7319   25.7790  -75.4826 N.am      5 UNK        -0.4615 
     50 C         -76.8774   24.7530  -75.3485 C.2       4 UNK         0.5053 
     51 O         -75.6612   24.8935  -75.2302 O.2       4 UNK        -0.5105 
     52 CA        -77.4462   23.3245  -75.4127 C.3       4 UNK         0.0263 
     53 CB        -77.5316   22.7039  -74.0112 C.3       4 UNK        -0.1981 
     54 N         -78.7517   23.2094  -76.0659 N.am      4 UNK        -0.4224 
     55 C         -79.0609   23.5565  -77.3221 C.2       3 UNK         0.4895 
     56 O         -78.2521   24.0426  -78.1140 O.2       3 UNK        -0.5091 
     57 CA        -80.5284   23.3724  -77.7597 C.3       3 UNK         0.0250 
     58 CB        -80.7796   21.9416  -78.2740 C.3       3 UNK        -0.1996 
     59 N         -81.5189   23.7730  -76.7438 N.am      3 UNK        -0.4254 
     60 C         -81.7639   23.2209  -75.5455 C.2       2 UNK         0.5004 
     61 O         -81.2189   22.1965  -75.1281 O.2       2 UNK        -0.5226 
     62 CA        -82.7136   23.9925  -74.6133 C.3       2 UNK         0.0269 
     63 CB        -83.9389   23.1387  -74.2474 C.3       2 UNK        -0.1926 
     64 N         -82.0293   24.4155  -73.3845 N.am      2 UNK        -0.4687 
     65 C         -80.9504   25.2115  -73.3466 C.2       1 UNK         0.5165 
     66 O         -80.4347   25.7025  -74.3551 O.2       1 UNK        -0.5079 
     67 H67       -76.5731   26.6726  -72.5744 H         1 UNK         0.0900 
     68 H68       -76.0568   26.2474  -70.9421 H         1 UNK         0.0900 
     69 H69       -75.9214   25.0665  -72.2487 H         1 UNK         0.0900 
     70 H70       -78.8093   26.6506  -72.8075 H         1 UNK         0.2959 
     71 H71       -80.4359   24.6256  -71.3589 H         1 UNK         0.1079 
     72 H72       -82.2141   26.2882  -71.0746 H         1 UNK         0.0837 
     73 H73       -81.3164   27.5079  -71.9249 H         1 UNK         0.0837 
     74 H74       -79.8617   29.4005  -68.9970 H         1 UNK         0.0685 
     75 H75       -81.1681   29.4446  -70.1483 H         1 UNK         0.0685 
     76 H76       -80.7021   29.7724  -72.4841 H         1 UNK         0.1434 
     77 H77       -76.6402   30.1671  -73.7993 H         1 UNK         0.1329 
     78 H78       -77.4842   28.8445  -69.8095 H         1 UNK         0.1335 
     79 H79       -74.9232   28.8810  -72.3490 H         1 UNK         0.0680 
     80 H80       -75.2093   28.8043  -70.6233 H         1 UNK         0.0680 
     81 H81       -72.7895   29.5886  -70.9334 H         1 UNK         0.1032 
     82 H82       -72.5756   31.1649  -70.2273 H         1 UNK         0.1032 
     83 H83       -72.2324   32.1575  -72.5033 H         1 UNK         0.0461 
     84 H84       -70.2042   29.3967  -73.3104 H         1 UNK         0.3453 
     85 H85       -68.8233   29.9630  -72.3997 H         1 UNK         0.3453 
     86 H86       -72.9888   29.5495  -73.4732 H         1 UNK         0.2984 
     87 H87       -73.4253   30.1353  -76.3640 H         1 UNK         0.0554 
     88 H88       -71.3782   30.8459  -77.5512 H         1 UNK         0.0847 
     89 H89       -71.7312   29.1709  -77.9377 H         1 UNK         0.0847 
     90 H90       -70.4465   29.5611  -76.7947 H         1 UNK         0.0847 
     91 H91       -73.5877   28.0187  -75.8136 H         1 UNK         0.3141 
     92 H92       -71.4475   25.6272  -74.1864 H         1 UNK         0.0743 
     93 H93       -72.8507   26.8092  -72.4711 H         1 UNK         0.0784 
     94 H94       -74.2151   26.7965  -73.5854 H         1 UNK         0.0784 
     95 H95       -73.5588   25.2818  -72.9699 H         1 UNK         0.0784 
     96 H96       -73.9568   25.3549  -75.5483 H         1 UNK         0.3213 
     97 H97       -72.5240   24.1301  -78.6098 H         1 UNK         0.0855 
     98 H98       -74.1508   22.9103  -76.3118 H         1 UNK         0.0814 
     99 H99       -72.6627   22.2644  -76.9840 H         1 UNK         0.0814 
    100 H100      -74.1124   22.3212  -77.9731 H         1 UNK         0.0814 
    101 H101      -75.1888   24.8017  -77.5863 H         1 UNK         0.3105 
    102 H102      -75.4565   27.8349  -79.3297 H         1 UNK         0.0547 
    103 H103      -77.3350   26.7684  -80.5543 H         1 UNK         0.0837 
    104 H104      -75.7997   26.2683  -81.2435 H         1 UNK         0.0837 
    105 H105      -76.6892   25.1656  -80.2022 H         1 UNK         0.0837 
    106 H106      -77.3741   26.1281  -78.0308 H         1 UNK         0.3020 
    107 H107      -76.9143   27.5399  -74.7624 H         1 UNK         0.1245 
    108 H108      -79.3686   27.8839  -75.1548 H         1 UNK         0.0781 
    109 H109      -79.1394   27.7186  -76.8688 H         1 UNK         0.0781 
    110 H110      -80.2977   30.2540  -74.7750 H         1 UNK         0.0836 
    111 H111      -79.1719   31.5845  -74.6630 H         1 UNK         0.0836 
    112 H112      -78.7251   25.5720  -75.4785 H         1 UNK         0.3022 
    113 H113      -76.7403   22.7354  -76.0013 H         1 UNK         0.0747 
    114 H114      -77.7426   21.6359  -74.0665 H         1 UNK         0.0793 
    115 H115      -76.5928   22.8190  -73.4673 H         1 UNK         0.0793 
    116 H116      -78.3191   23.1651  -73.4154 H         1 UNK         0.0793 
    117 H117      -79.5052   22.8045  -75.5148 H         1 UNK         0.3047 
    118 H118      -80.6834   24.0502  -78.6009 H         1 UNK         0.0822 
    119 H119      -80.1083   21.7041  -79.1004 H         1 UNK         0.0807 
    120 H120      -81.7992   21.8260  -78.6418 H         1 UNK         0.0807 
    121 H121      -80.6150   21.1909  -77.5006 H         1 UNK         0.0807 
    122 H122      -81.9960   24.6392  -76.9539 H         1 UNK         0.2946 
    123 H123      -83.0638   24.8915  -75.1256 H         1 UNK         0.1144 
    124 H124      -84.6445   23.6978  -73.6325 H         1 UNK         0.0793 
    125 H125      -83.6557   22.2383  -73.7004 H         1 UNK         0.0793 
    126 H126      -84.4734   22.8201  -75.1435 H         1 UNK         0.0793 
    127 H127      -82.3894   24.0373  -72.5202 H         1 UNK         0.2896 
@<TRIPOS>BOND
     1    1    2 1    
     2    1   67 1    
     3    1   68 1    
     4    1   69 1    
     5    2    3 2    
     6    2    4 am   BACKBONE|DICT|INTERRES
     7    4    5 1    
     8    4   70 1    
     9    5    6 1    
    10    5   65 1    
    11    5   71 1    
    12    6    7 1    
    13    6   72 1    
    14    6   73 1    
    15    7    8 1    
    16    8    9 1    
    17    8   74 1    
    18    8   75 1    
    19    9   10 ar   
    20    9   14 ar   
    21   10   11 ar   
    22   10   76 1    
    23   11   12 ar   
    24   11   48 1    
    25   12   13 ar   
    26   12   77 1    
    27   13   14 ar   
    28   13   15 1    
    29   14   78 1    
    30   15   16 1    
    31   15   79 1    
    32   15   80 1    
    33   16   17 1    
    34   17   18 1    
    35   17   81 1    
    36   17   82 1    
    37   18   19 1    
    38   18   22 1    
    39   18   83 1    
    40   19   20 am   BACKBONE|DICT|INTERRES
    41   19   21 2    
    42   20   84 1    
    43   20   85 1    
    44   22   23 am   BACKBONE|DICT|INTERRES
    45   22   86 1    
    46   23   24 2    
    47   23   25 1    
    48   25   26 1    
    49   25   27 1    
    50   25   87 1    
    51   26   88 1    
    52   26   89 1    
    53   26   90 1    
    54   27   28 am   BACKBONE|DICT|INTERRES
    55   27   91 1    
    56   28   29 2    
    57   28   30 1    
    58   30   31 1    
    59   30   32 1    
    60   30   92 1    
    61   31   93 1    
    62   31   94 1    
    63   31   95 1    
    64   32   33 am   BACKBONE|DICT|INTERRES
    65   32   96 1    
    66   33   34 2    
    67   33   35 1    
    68   35   36 1    
    69   35   37 1    
    70   35   97 1    
    71   36   98 1    
    72   36   99 1    
    73   36  100 1    
    74   37   38 am   BACKBONE|DICT|INTERRES
    75   37  101 1    
    76   38   39 2    
    77   38   40 1    
    78   40   41 1    
    79   40   42 1    
    80   40  102 1    
    81   41  103 1    
    82   41  104 1    
    83   41  105 1    
    84   42   43 am   BACKBONE|DICT|INTERRES
    85   42  106 1    
    86   43   44 2    
    87   43   45 1    
    88   45   46 1    
    89   45   49 1    
    90   45  107 1    
    91   46   47 1    
    92   46  108 1    
    93   46  109 1    
    94   47   48 1    
    95   48  110 1    
    96   48  111 1    
    97   49   50 am   BACKBONE|DICT|INTERRES
    98   49  112 1    
    99   50   51 2    
   100   50   52 1    
   101   52   53 1    
   102   52   54 1    
   103   52  113 1    
   104   53  114 1    
   105   53  115 1    
   106   53  116 1    
   107   54   55 am   BACKBONE|DICT|INTERRES
   108   54  117 1    
   109   55   56 2    
   110   55   57 1    
   111   57   58 1    
   112   57   59 1    
   113   57  118 1    
   114   58  119 1    
   115   58  120 1    
   116   58  121 1    
   117   59   60 am   BACKBONE|DICT|INTERRES
   118   59  122 1    
   119   60   61 2    
   120   60   62 1    
   121   62   63 1    
   122   62   64 1    
   123   62  123 1    
   124   63  124 1    
   125   63  125 1    
   126   63  126 1    
   127   64   65 am   BACKBONE|DICT|INTERRES
   128   64  127 1    
   129   65   66 2    
@<TRIPOS>SUBSTRUCTURE
     1 UNK         1 GROUP             0       ****    0 ROOT    
