@<TRIPOS>MOLECULE
3R135
127   129    1
SMALL
USER_CHARGES


@<TRIPOS>ATOM
      1 CA        -80.6892   30.0820  -76.5403 C.3       0 UNK        -0.1998 
      2 C         -80.4735   28.9809  -75.5137 C.2       0 UNK         0.4909 
      3 O         -79.3789   28.4241  -75.4279 O.2       0 UNK        -0.5240 
      4 N         -81.5046   28.6672  -74.7215 N.am      1 UNK        -0.4739 
      5 CA        -81.4590   27.5938  -73.7286 C.3       1 UNK         0.0864 
      6 C6        -82.5539   27.7493  -72.6409 C.3       11 UNK        -0.0881 
      7 S7        -82.5563   29.2303  -71.5466 S.3       11 UNK        -0.2682 
      8 C8        -81.1038   30.2908  -71.9194 C.3       11 UNK         0.0289 
      9 C9        -79.7348   29.7985  -71.4410 C.ar      11 UNK        -0.0687 
     10 C10       -79.5380   28.5288  -70.8863 C.ar      11 UNK        -0.0823 
     11 C11       -78.2527   28.0841  -70.5725 C.ar      11 UNK        -0.0830 
     12 C12       -77.1659   28.9495  -70.7022 C.ar      11 UNK        -0.1021 
     13 C13       -77.3398   30.2232  -71.2453 C.ar      11 UNK        -0.0753 
     14 C14       -78.6254   30.6378  -71.6156 C.ar      11 UNK        -0.0933 
     15 C15       -76.1336   31.1304  -71.4632 C.3       11 UNK         0.0166 
     16 S16       -75.1277   30.6120  -72.8986 S.3       11 UNK        -0.2615 
     17 C17       -74.1090   29.2586  -72.2059 C.3       11 UNK        -0.0865 
     18 CA        -72.6472   29.2406  -72.7310 C.3       10 UNK         0.0862 
     19 C         -71.7857   28.1782  -71.9827 C.2       10 UNK         0.5551 
     20 N         -71.0759   27.2815  -72.6588 N.am      10 UNK        -0.7319 
     21 O         -71.7509   28.1755  -70.7546 O.2       10 UNK        -0.5018 
     22 N         -72.5712   29.1312  -74.1991 N.am      10 UNK        -0.4509 
     23 C         -71.5889   29.6711  -74.9340 C.2       10 UNK         0.4899 
     24 O         -70.6979   30.3784  -74.4595 O.2       10 UNK        -0.4839 
     25 CA        -71.5971   29.3803  -76.4491 C.3       9 UNK         0.0222 
     26 CB        -70.2401   29.6809  -77.1211 C.3       9 UNK        -0.1966 
     27 N         -72.0503   28.0304  -76.8061 N.am      9 UNK        -0.4218 
     28 C         -71.5319   26.8555  -76.4094 C.2       9 UNK         0.5020 
     29 O         -70.5939   26.7630  -75.6157 O.2       9 UNK        -0.5274 
     30 CA        -72.1718   25.5699  -76.9761 C.3       8 UNK         0.0270 
     31 CB        -72.2056   24.4432  -75.9279 C.3       8 UNK        -0.1976 
     32 N         -73.5372   25.8252  -77.4366 N.am      8 UNK        -0.4313 
     33 C         -73.9544   25.8243  -78.7110 C.2       8 UNK         0.5041 
     34 O         -73.2500   25.4788  -79.6601 O.2       8 UNK        -0.5577 
     35 CA        -75.3833   26.3408  -78.9909 C.3       7 UNK         0.0284 
     36 CB        -76.3536   25.1803  -79.2551 C.3       7 UNK        -0.1958 
     37 N         -75.9230   27.1798  -77.9169 N.am      7 UNK        -0.4454 
     38 C         -75.4271   28.3719  -77.5597 C.2       7 UNK         0.5089 
     39 O         -74.5324   28.9488  -78.1767 O.2       7 UNK        -0.5125 
     40 CA        -75.9435   28.9769  -76.2450 C.3       6 UNK         0.0408 
     41 CB        -76.9793   30.0724  -76.5281 C.3       6 UNK        -0.1791 
     42 N         -76.4827   27.9763  -75.3078 N.am      6 UNK        -0.4762 
     43 C         -75.7236   27.0487  -74.6969 C.2       6 UNK         0.5007 
     44 O         -74.5210   26.9307  -74.9360 O.2       6 UNK        -0.5032 
     45 CA        -76.3552   26.1189  -73.6402 C.3       5 UNK         0.0783 
     46 C46       -77.7605   26.5527  -73.1776 C.3       11 UNK        -0.0857 
     47 S47       -78.3728   25.5774  -71.7446 S.3       11 UNK        -0.2512 
     48 C48       -78.0139   26.6148  -70.2777 C.3       11 UNK         0.0225 
     49 N         -76.3545   24.7417  -74.1352 N.am      5 UNK        -0.4615 
     50 C         -75.4480   23.8118  -73.8032 C.2       4 UNK         0.5053 
     51 O         -74.4740   24.0430  -73.0866 O.2       4 UNK        -0.5105 
     52 CA        -75.6652   22.3686  -74.3035 C.3       4 UNK         0.0263 
     53 CB        -75.7013   21.3844  -73.1202 C.3       4 UNK        -0.1981 
     54 N         -76.9030   22.2105  -75.0699 N.am      4 UNK        -0.4224 
     55 C         -76.9977   22.2625  -76.4046 C.2       3 UNK         0.4895 
     56 O         -76.0261   22.3664  -77.1526 O.2       3 UNK        -0.5091 
     57 CA        -78.4147   22.1993  -77.0160 C.3       3 UNK         0.0250 
     58 CB        -78.6794   20.8059  -77.6090 C.3       3 UNK        -0.1996 
     59 N         -79.5028   22.5410  -76.0865 N.am      3 UNK        -0.4254 
     60 C         -79.6592   23.7345  -75.4961 C.2       2 UNK         0.5004 
     61 O         -78.8885   24.6772  -75.6868 O.2       2 UNK        -0.5226 
     62 CA        -80.8196   23.8580  -74.4881 C.3       2 UNK         0.0269 
     63 CB        -80.6466   22.8584  -73.3287 C.3       2 UNK        -0.1926 
     64 N         -80.8987   25.2055  -73.9161 N.am      2 UNK        -0.4687 
     65 C         -81.5864   26.2259  -74.4423 C.2       1 UNK         0.5165 
     66 O         -82.3245   26.1128  -75.4254 O.2       1 UNK        -0.5079 
     67 H67       -81.7176   30.4426  -76.5405 H         1 UNK         0.0900 
     68 H68       -80.4593   29.7124  -77.5391 H         1 UNK         0.0900 
     69 H69       -80.0333   30.9255  -76.3276 H         1 UNK         0.0900 
     70 H70       -82.3976   29.1220  -74.8446 H         1 UNK         0.2959 
     71 H71       -80.4843   27.6230  -73.2429 H         1 UNK         0.1079 
     72 H72       -82.5188   26.8871  -71.9718 H         1 UNK         0.0837 
     73 H73       -83.5391   27.7035  -73.1094 H         1 UNK         0.0837 
     74 H74       -81.0637   30.5181  -72.9826 H         1 UNK         0.0685 
     75 H75       -81.2899   31.2482  -71.4308 H         1 UNK         0.0685 
     76 H76       -80.3618   27.8394  -70.7770 H         1 UNK         0.1434 
     77 H77       -76.1749   28.6020  -70.4513 H         1 UNK         0.1329 
     78 H78       -78.7622   31.6155  -72.0576 H         1 UNK         0.1335 
     79 H79       -75.5189   31.1605  -70.5626 H         1 UNK         0.0680 
     80 H80       -76.4662   32.1556  -71.6325 H         1 UNK         0.0680 
     81 H81       -74.0967   29.3658  -71.1202 H         1 UNK         0.1032 
     82 H82       -74.5988   28.3076  -72.4052 H         1 UNK         0.1032 
     83 H83       -72.2159   30.2018  -72.4450 H         1 UNK         0.0461 
     84 H84       -70.5257   26.6092  -72.1494 H         1 UNK         0.3453 
     85 H85       -71.0628   27.2732  -73.6722 H         1 UNK         0.3453 
     86 H86       -73.2386   28.5047  -74.6351 H         1 UNK         0.2984 
     87 H87       -72.3305   30.0653  -76.8763 H         1 UNK         0.0554 
     88 H88       -70.2810   29.5031  -78.1957 H         1 UNK         0.0847 
     89 H89       -69.4409   29.0638  -76.7089 H         1 UNK         0.0847 
     90 H90       -69.9526   30.7235  -76.9795 H         1 UNK         0.0847 
     91 H91       -72.8397   28.0110  -77.4424 H         1 UNK         0.3141 
     92 H92       -71.5451   25.2436  -77.8081 H         1 UNK         0.0743 
     93 H93       -72.7139   23.5575  -76.3097 H         1 UNK         0.0784 
     94 H94       -71.1970   24.1414  -75.6429 H         1 UNK         0.0784 
     95 H95       -72.7185   24.7605  -75.0195 H         1 UNK         0.0784 
     96 H96       -74.1702   26.1470  -76.7099 H         1 UNK         0.3213 
     97 H97       -75.3285   26.9497  -79.8961 H         1 UNK         0.0855 
     98 H98       -76.5375   24.6032  -78.3506 H         1 UNK         0.0814 
     99 H99       -75.9576   24.4963  -80.0072 H         1 UNK         0.0814 
    100 H100      -77.3146   25.5427  -79.6203 H         1 UNK         0.0814 
    101 H101      -76.6626   26.7877  -77.3507 H         1 UNK         0.3105 
    102 H102      -75.0923   29.4541  -75.7557 H         1 UNK         0.0547 
    103 H103      -76.5308   30.8928  -77.0896 H         1 UNK         0.0837 
    104 H104      -77.8109   29.6937  -77.1218 H         1 UNK         0.0837 
    105 H105      -77.3790   30.4917  -75.6045 H         1 UNK         0.0837 
    106 H106      -77.4839   28.0277  -75.1283 H         1 UNK         0.3020 
    107 H107      -75.7038   26.1897  -72.7666 H         1 UNK         0.1245 
    108 H108      -78.4693   26.4275  -73.9912 H         1 UNK         0.0781 
    109 H109      -77.7793   27.6201  -72.9721 H         1 UNK         0.0781 
    110 H110      -76.9820   26.4419  -69.9682 H         1 UNK         0.0836 
    111 H111      -78.6438   26.2969  -69.4458 H         1 UNK         0.0836 
    112 H112      -77.1265   24.4993  -74.7473 H         1 UNK         0.3022 
    113 H113      -74.8064   22.1144  -74.9286 H         1 UNK         0.0747 
    114 H114      -75.8283   20.3571  -73.4625 H         1 UNK         0.0793 
    115 H115      -74.7713   21.4193  -72.5509 H         1 UNK         0.0793 
    116 H116      -76.5146   21.6126  -72.4300 H         1 UNK         0.0793 
    117 H117      -77.7539   22.1122  -74.5361 H         1 UNK         0.3047 
    118 H118      -78.4407   22.9261  -77.8307 H         1 UNK         0.0822 
    119 H119      -78.6906   20.0342  -76.8382 H         1 UNK         0.0807 
    120 H120      -77.9066   20.5346  -78.3299 H         1 UNK         0.0807 
    121 H121      -79.6339   20.7717  -78.1347 H         1 UNK         0.0807 
    122 H122      -80.1668   21.8067  -75.8849 H         1 UNK         0.2946 
    123 H123      -81.7489   23.6298  -75.0152 H         1 UNK         0.1144 
    124 H124      -79.6934   22.9927  -72.8156 H         1 UNK         0.0793 
    125 H125      -80.6878   21.8261  -73.6776 H         1 UNK         0.0793 
    126 H126      -81.4393   22.9723  -72.5889 H         1 UNK         0.0793 
    127 H127      -80.2824   25.3824  -73.1335 H         1 UNK         0.2896 
@<TRIPOS>BOND
     1    1    2 1    
     2    1   67 1    
     3    1   68 1    
     4    1   69 1    
     5    2    3 2    
     6    2    4 am   BACKBONE|DICT|INTERRES
     7    4    5 1    
     8    4   70 1    
     9    5    6 1    
    10    5   65 1    
    11    5   71 1    
    12    6    7 1    
    13    6   72 1    
    14    6   73 1    
    15    7    8 1    
    16    8    9 1    
    17    8   74 1    
    18    8   75 1    
    19    9   10 ar   
    20    9   14 ar   
    21   10   11 ar   
    22   10   76 1    
    23   11   12 ar   
    24   11   48 1    
    25   12   13 ar   
    26   12   77 1    
    27   13   14 ar   
    28   13   15 1    
    29   14   78 1    
    30   15   16 1    
    31   15   79 1    
    32   15   80 1    
    33   16   17 1    
    34   17   18 1    
    35   17   81 1    
    36   17   82 1    
    37   18   19 1    
    38   18   22 1    
    39   18   83 1    
    40   19   20 am   BACKBONE|DICT|INTERRES
    41   19   21 2    
    42   20   84 1    
    43   20   85 1    
    44   22   23 am   BACKBONE|DICT|INTERRES
    45   22   86 1    
    46   23   24 2    
    47   23   25 1    
    48   25   26 1    
    49   25   27 1    
    50   25   87 1    
    51   26   88 1    
    52   26   89 1    
    53   26   90 1    
    54   27   28 am   BACKBONE|DICT|INTERRES
    55   27   91 1    
    56   28   29 2    
    57   28   30 1    
    58   30   31 1    
    59   30   32 1    
    60   30   92 1    
    61   31   93 1    
    62   31   94 1    
    63   31   95 1    
    64   32   33 am   BACKBONE|DICT|INTERRES
    65   32   96 1    
    66   33   34 2    
    67   33   35 1    
    68   35   36 1    
    69   35   37 1    
    70   35   97 1    
    71   36   98 1    
    72   36   99 1    
    73   36  100 1    
    74   37   38 am   BACKBONE|DICT|INTERRES
    75   37  101 1    
    76   38   39 2    
    77   38   40 1    
    78   40   41 1    
    79   40   42 1    
    80   40  102 1    
    81   41  103 1    
    82   41  104 1    
    83   41  105 1    
    84   42   43 am   BACKBONE|DICT|INTERRES
    85   42  106 1    
    86   43   44 2    
    87   43   45 1    
    88   45   46 1    
    89   45   49 1    
    90   45  107 1    
    91   46   47 1    
    92   46  108 1    
    93   46  109 1    
    94   47   48 1    
    95   48  110 1    
    96   48  111 1    
    97   49   50 am   BACKBONE|DICT|INTERRES
    98   49  112 1    
    99   50   51 2    
   100   50   52 1    
   101   52   53 1    
   102   52   54 1    
   103   52  113 1    
   104   53  114 1    
   105   53  115 1    
   106   53  116 1    
   107   54   55 am   BACKBONE|DICT|INTERRES
   108   54  117 1    
   109   55   56 2    
   110   55   57 1    
   111   57   58 1    
   112   57   59 1    
   113   57  118 1    
   114   58  119 1    
   115   58  120 1    
   116   58  121 1    
   117   59   60 am   BACKBONE|DICT|INTERRES
   118   59  122 1    
   119   60   61 2    
   120   60   62 1    
   121   62   63 1    
   122   62   64 1    
   123   62  123 1    
   124   63  124 1    
   125   63  125 1    
   126   63  126 1    
   127   64   65 am   BACKBONE|DICT|INTERRES
   128   64  127 1    
   129   65   66 2    
@<TRIPOS>SUBSTRUCTURE
     1 UNK         1 GROUP             0       ****    0 ROOT    
