@<TRIPOS>MOLECULE
3R135
127   129    1
SMALL
USER_CHARGES


@<TRIPOS>ATOM
      1 CA        -83.8125   26.2976  -70.0444 C.3       0 UNK        -0.1998 
      2 C         -83.7566   26.7852  -71.4843 C.2       0 UNK         0.4909 
      3 O         -84.7240   26.6156  -72.2270 O.2       0 UNK        -0.5240 
      4 N         -82.6306   27.3917  -71.8820 N.am      1 UNK        -0.4739 
      5 CA        -82.3908   27.9102  -73.2360 C.3       1 UNK         0.0864 
      6 C6        -81.1969   28.8943  -73.2741 C.3       11 UNK        -0.0881 
      7 S7        -81.5134   30.4228  -72.3236 S.3       11 UNK        -0.2682 
      8 C8        -80.7570   30.0787  -70.6993 C.3       11 UNK         0.0289 
      9 C9        -79.2655   29.7942  -70.7978 C.ar      11 UNK        -0.0687 
     10 C10       -78.7790   28.4999  -70.5902 C.ar      11 UNK        -0.0823 
     11 C11       -77.4135   28.2279  -70.7091 C.ar      11 UNK        -0.0830 
     12 C12       -76.5272   29.2697  -71.0010 C.ar      11 UNK        -0.1021 
     13 C13       -77.0023   30.5669  -71.2157 C.ar      11 UNK        -0.0753 
     14 C14       -78.3721   30.8237  -71.1070 C.ar      11 UNK        -0.0933 
     15 C15       -76.0448   31.6945  -71.5712 C.3       11 UNK         0.0166 
     16 S16       -75.8686   31.8848  -73.3757 S.3       11 UNK        -0.2615 
     17 C17       -74.5700   30.6581  -73.7575 C.3       11 UNK        -0.0865 
     18 CA        -73.1783   31.3024  -74.0178 C.3       10 UNK         0.0862 
     19 C         -72.5420   31.8827  -72.7196 C.2       10 UNK         0.5551 
     20 N         -71.8888   31.0740  -71.8969 N.am      10 UNK        -0.7319 
     21 O         -72.6266   33.0822  -72.4694 O.2       10 UNK        -0.5018 
     22 N         -72.2803   30.4197  -74.7862 N.am      10 UNK        -0.4509 
     23 C         -71.8612   29.1974  -74.4370 C.2       10 UNK         0.4899 
     24 O         -72.1962   28.6211  -73.3990 O.2       10 UNK        -0.4839 
     25 CA        -70.8414   28.5329  -75.3676 C.3       9 UNK         0.0222 
     26 CB        -69.4269   28.7757  -74.7940 C.3       9 UNK        -0.1966 
     27 N         -71.1841   27.1115  -75.4603 N.am      9 UNK        -0.4218 
     28 C         -70.4552   26.1059  -75.9612 C.2       9 UNK         0.5020 
     29 O         -69.3387   26.2341  -76.4653 O.2       9 UNK        -0.5274 
     30 CA        -71.0870   24.7054  -75.8880 C.3       8 UNK         0.0270 
     31 CB        -71.5330   24.3472  -74.4581 C.3       8 UNK        -0.1976 
     32 N         -72.2146   24.5725  -76.8103 N.am      8 UNK        -0.4313 
     33 C         -72.1046   24.5017  -78.1450 C.2       8 UNK         0.5041 
     34 O         -71.0304   24.4598  -78.7464 O.2       8 UNK        -0.5577 
     35 CA        -73.4119   24.4694  -78.9556 C.3       7 UNK         0.0284 
     36 CB        -73.9463   23.0323  -79.0628 C.3       7 UNK        -0.1958 
     37 N         -74.4505   25.3407  -78.4031 N.am      7 UNK        -0.4454 
     38 C         -74.3816   26.6789  -78.3561 C.2       7 UNK         0.5089 
     39 O         -73.4590   27.3390  -78.8346 O.2       7 UNK        -0.5125 
     40 CA        -75.5273   27.4040  -77.6286 C.3       6 UNK         0.0408 
     41 CB        -76.7223   27.6227  -78.5698 C.3       6 UNK        -0.1791 
     42 N         -75.9721   26.7000  -76.4233 N.am      6 UNK        -0.4762 
     43 C         -75.2132   26.5005  -75.3352 C.2       6 UNK         0.5007 
     44 O         -74.0541   26.8944  -75.2233 O.2       6 UNK        -0.5032 
     45 CA        -75.8449   25.6813  -74.1979 C.3       5 UNK         0.0783 
     46 C46       -76.8139   26.5664  -73.3819 C.3       11 UNK        -0.0857 
     47 S47       -77.4832   25.7215  -71.9091 S.3       11 UNK        -0.2512 
     48 C48       -76.9011   26.8011  -70.5569 C.3       11 UNK         0.0225 
     49 N         -76.4798   24.4702  -74.7250 N.am      5 UNK        -0.4615 
     50 C         -75.8049   23.4486  -75.2735 C.2       4 UNK         0.5053 
     51 O         -74.5776   23.4076  -75.3530 O.2       4 UNK        -0.5105 
     52 CA        -76.6299   22.2970  -75.8744 C.3       4 UNK         0.0263 
     53 CB        -76.9418   21.2444  -74.7992 C.3       4 UNK        -0.1981 
     54 N         -77.8783   22.7415  -76.4965 N.am      4 UNK        -0.4224 
     55 C         -77.9678   23.6043  -77.5196 C.2       3 UNK         0.4895 
     56 O         -76.9935   24.0672  -78.1109 O.2       3 UNK        -0.5091 
     57 CA        -79.3789   24.0704  -77.9202 C.3       3 UNK         0.0250 
     58 CB        -79.8982   23.2468  -79.1090 C.3       3 UNK        -0.1996 
     59 N         -80.3549   24.0190  -76.8239 N.am      3 UNK        -0.4254 
     60 C         -80.2619   24.7208  -75.6853 C.2       2 UNK         0.5004 
     61 O         -79.3263   25.4808  -75.4237 O.2       2 UNK        -0.5226 
     62 CA        -81.3549   24.4618  -74.6358 C.3       2 UNK         0.0269 
     63 CB        -80.9325   23.3085  -73.7102 C.3       2 UNK        -0.1926 
     64 N         -81.6332   25.6421  -73.8169 N.am      2 UNK        -0.4687 
     65 C         -82.1892   26.7773  -74.2649 C.2       1 UNK         0.5165 
     66 O         -82.5589   26.9441  -75.4285 O.2       1 UNK        -0.5079 
     67 H67       -83.9704   25.2198  -70.0195 H         1 UNK         0.0900 
     68 H68       -84.6389   26.7754  -69.5189 H         1 UNK         0.0900 
     69 H69       -82.8935   26.5184  -69.5018 H         1 UNK         0.0900 
     70 H70       -81.8740   27.5114  -71.2262 H         1 UNK         0.2959 
     71 H71       -83.2857   28.4543  -73.5475 H         1 UNK         0.1079 
     72 H72       -80.2799   28.4105  -72.9360 H         1 UNK         0.0837 
     73 H73       -80.9994   29.2048  -74.3023 H         1 UNK         0.0837 
     74 H74       -80.9112   30.9447  -70.0540 H         1 UNK         0.0685 
     75 H75       -81.2817   29.2519  -70.2200 H         1 UNK         0.0685 
     76 H76       -79.4623   27.6933  -70.3634 H         1 UNK         0.1434 
     77 H77       -75.4690   29.0646  -71.0828 H         1 UNK         0.1329 
     78 H78       -78.7475   31.8234  -71.2787 H         1 UNK         0.1335 
     79 H79       -75.0695   31.5297  -71.1111 H         1 UNK         0.0680 
     80 H80       -76.4163   32.6335  -71.1580 H         1 UNK         0.0680 
     81 H81       -74.8959   30.1197  -74.6490 H         1 UNK         0.1032 
     82 H82       -74.5094   29.9046  -72.9730 H         1 UNK         0.1032 
     83 H83       -73.3393   32.1534  -74.6816 H         1 UNK         0.0461 
     84 H84       -71.4640   31.4383  -71.0591 H         1 UNK         0.3453 
     85 H85       -71.8345   30.0867  -72.1197 H         1 UNK         0.3453 
     86 H86       -71.9094   30.8255  -75.6337 H         1 UNK         0.2984 
     87 H87       -70.9179   28.9687  -76.3652 H         1 UNK         0.0554 
     88 H88       -68.6461   28.4877  -75.4968 H         1 UNK         0.0847 
     89 H89       -69.2685   28.2229  -73.8671 H         1 UNK         0.0847 
     90 H90       -69.2675   29.8321  -74.5726 H         1 UNK         0.0847 
     91 H91       -72.1222   26.9028  -75.1206 H         1 UNK         0.3141 
     92 H92       -70.3216   23.9840  -76.1825 H         1 UNK         0.0743 
     93 H93       -70.7142   24.4764  -73.7491 H         1 UNK         0.0784 
     94 H94       -72.3634   24.9658  -74.1165 H         1 UNK         0.0784 
     95 H95       -71.8526   23.3067  -74.3970 H         1 UNK         0.0784 
     96 H96       -73.1400   24.5377  -76.3963 H         1 UNK         0.3213 
     97 H97       -73.1849   24.8238  -79.9634 H         1 UNK         0.0855 
     98 H98       -73.2035   22.3729  -79.5136 H         1 UNK         0.0814 
     99 H99       -74.8411   22.9862  -79.6838 H         1 UNK         0.0814 
    100 H100      -74.1960   22.6217  -78.0844 H         1 UNK         0.0814 
    101 H101      -75.2975   24.8890  -78.0648 H         1 UNK         0.3105 
    102 H102      -75.1554   28.3834  -77.3197 H         1 UNK         0.0547 
    103 H103      -76.4202   28.1796  -79.4577 H         1 UNK         0.0837 
    104 H104      -77.1506   26.6791  -78.9090 H         1 UNK         0.0837 
    105 H105      -77.5123   28.1946  -78.0830 H         1 UNK         0.0837 
    106 H106      -76.9051   26.3103  -76.4359 H         1 UNK         0.3020 
    107 H107      -75.0322   25.3709  -73.5369 H         1 UNK         0.1245 
    108 H108      -77.6556   26.8960  -73.9928 H         1 UNK         0.0781 
    109 H109      -76.2998   27.4776  -73.0749 H         1 UNK         0.0781 
    110 H110      -75.8106   26.7781  -70.5266 H         1 UNK         0.0836 
    111 H111      -77.2432   26.3943  -69.6042 H         1 UNK         0.0836 
    112 H112      -77.4921   24.4689  -74.7373 H         1 UNK         0.3022 
    113 H113      -76.0240   21.8256  -76.6506 H         1 UNK         0.0747 
    114 H114      -77.4515   20.3799  -75.2249 H         1 UNK         0.0793 
    115 H115      -76.0248   20.8804  -74.3335 H         1 UNK         0.0793 
    116 H116      -77.5712   21.6501  -74.0057 H         1 UNK         0.0793 
    117 H117      -78.7359   22.4081  -76.0829 H         1 UNK         0.3047 
    118 H118      -79.2945   25.1125  -78.2362 H         1 UNK         0.0822 
    119 H119      -80.8547   23.6270  -79.4686 H         1 UNK         0.0807 
    120 H120      -80.0296   22.1960  -78.8475 H         1 UNK         0.0807 
    121 H121      -79.2004   23.2891  -79.9468 H         1 UNK         0.0807 
    122 H122      -81.1466   23.4054  -76.9564 H         1 UNK         0.2946 
    123 H123      -82.2781   24.1861  -75.1507 H         1 UNK         0.1144 
    124 H124      -81.7060   23.0863  -72.9746 H         1 UNK         0.0793 
    125 H125      -80.0132   23.5414  -73.1702 H         1 UNK         0.0793 
    126 H126      -80.7559   22.3927  -74.2756 H         1 UNK         0.0793 
    127 H127      -81.3439   25.6030  -72.8512 H         1 UNK         0.2896 
@<TRIPOS>BOND
     1    1    2 1    
     2    1   67 1    
     3    1   68 1    
     4    1   69 1    
     5    2    3 2    
     6    2    4 am   BACKBONE|DICT|INTERRES
     7    4    5 1    
     8    4   70 1    
     9    5    6 1    
    10    5   65 1    
    11    5   71 1    
    12    6    7 1    
    13    6   72 1    
    14    6   73 1    
    15    7    8 1    
    16    8    9 1    
    17    8   74 1    
    18    8   75 1    
    19    9   10 ar   
    20    9   14 ar   
    21   10   11 ar   
    22   10   76 1    
    23   11   12 ar   
    24   11   48 1    
    25   12   13 ar   
    26   12   77 1    
    27   13   14 ar   
    28   13   15 1    
    29   14   78 1    
    30   15   16 1    
    31   15   79 1    
    32   15   80 1    
    33   16   17 1    
    34   17   18 1    
    35   17   81 1    
    36   17   82 1    
    37   18   19 1    
    38   18   22 1    
    39   18   83 1    
    40   19   20 am   BACKBONE|DICT|INTERRES
    41   19   21 2    
    42   20   84 1    
    43   20   85 1    
    44   22   23 am   BACKBONE|DICT|INTERRES
    45   22   86 1    
    46   23   24 2    
    47   23   25 1    
    48   25   26 1    
    49   25   27 1    
    50   25   87 1    
    51   26   88 1    
    52   26   89 1    
    53   26   90 1    
    54   27   28 am   BACKBONE|DICT|INTERRES
    55   27   91 1    
    56   28   29 2    
    57   28   30 1    
    58   30   31 1    
    59   30   32 1    
    60   30   92 1    
    61   31   93 1    
    62   31   94 1    
    63   31   95 1    
    64   32   33 am   BACKBONE|DICT|INTERRES
    65   32   96 1    
    66   33   34 2    
    67   33   35 1    
    68   35   36 1    
    69   35   37 1    
    70   35   97 1    
    71   36   98 1    
    72   36   99 1    
    73   36  100 1    
    74   37   38 am   BACKBONE|DICT|INTERRES
    75   37  101 1    
    76   38   39 2    
    77   38   40 1    
    78   40   41 1    
    79   40   42 1    
    80   40  102 1    
    81   41  103 1    
    82   41  104 1    
    83   41  105 1    
    84   42   43 am   BACKBONE|DICT|INTERRES
    85   42  106 1    
    86   43   44 2    
    87   43   45 1    
    88   45   46 1    
    89   45   49 1    
    90   45  107 1    
    91   46   47 1    
    92   46  108 1    
    93   46  109 1    
    94   47   48 1    
    95   48  110 1    
    96   48  111 1    
    97   49   50 am   BACKBONE|DICT|INTERRES
    98   49  112 1    
    99   50   51 2    
   100   50   52 1    
   101   52   53 1    
   102   52   54 1    
   103   52  113 1    
   104   53  114 1    
   105   53  115 1    
   106   53  116 1    
   107   54   55 am   BACKBONE|DICT|INTERRES
   108   54  117 1    
   109   55   56 2    
   110   55   57 1    
   111   57   58 1    
   112   57   59 1    
   113   57  118 1    
   114   58  119 1    
   115   58  120 1    
   116   58  121 1    
   117   59   60 am   BACKBONE|DICT|INTERRES
   118   59  122 1    
   119   60   61 2    
   120   60   62 1    
   121   62   63 1    
   122   62   64 1    
   123   62  123 1    
   124   63  124 1    
   125   63  125 1    
   126   63  126 1    
   127   64   65 am   BACKBONE|DICT|INTERRES
   128   64  127 1    
   129   65   66 2    
@<TRIPOS>SUBSTRUCTURE
     1 UNK         1 GROUP             0       ****    0 ROOT    
