@<TRIPOS>MOLECULE
3R135
127   129    1
SMALL
USER_CHARGES


@<TRIPOS>ATOM
      1 CA        -77.5437   21.5003  -75.5575 C.3       0 UNK        -0.1998 
      2 C         -78.1971   21.9462  -74.2605 C.2       0 UNK         0.4909 
      3 O         -78.5995   21.1042  -73.4577 O.2       0 UNK        -0.5240 
      4 N         -78.3476   23.2616  -74.0605 N.am      1 UNK        -0.4739 
      5 CA        -78.9690   23.8925  -72.8847 C.3       1 UNK         0.0864 
      6 C6        -78.4864   25.3554  -72.7138 C.3       11 UNK        -0.0881 
      7 S7        -76.6876   25.4942  -72.4319 S.3       11 UNK        -0.2682 
      8 C8        -76.6245   26.5867  -70.9694 C.3       11 UNK         0.0289 
      9 C9        -76.6466   28.0679  -71.3379 C.ar      11 UNK        -0.0687 
     10 C10       -77.7359   28.6233  -72.0153 C.ar      11 UNK        -0.0823 
     11 C11       -77.7382   29.9712  -72.3813 C.ar      11 UNK        -0.0830 
     12 C12       -76.6676   30.7860  -72.0043 C.ar      11 UNK        -0.1021 
     13 C13       -75.5723   30.2544  -71.3110 C.ar      11 UNK        -0.0753 
     14 C14       -75.5734   28.8934  -70.9876 C.ar      11 UNK        -0.0933 
     15 C15       -74.3705   31.0978  -70.8777 C.3       11 UNK         0.0166 
     16 S16       -74.2384   32.7844  -71.5820 S.3       11 UNK        -0.2615 
     17 C17       -74.0002   32.6564  -73.4007 C.3       11 UNK        -0.0865 
     18 CA        -73.7952   31.2585  -74.0594 C.3       10 UNK         0.0862 
     19 C         -73.7886   31.3285  -75.6192 C.2       10 UNK         0.5551 
     20 N         -73.0381   30.4853  -76.3184 N.am      10 UNK        -0.7319 
     21 O         -74.4929   32.1438  -76.2097 O.2       10 UNK        -0.5018 
     22 N         -72.6690   30.5030  -73.4958 N.am      10 UNK        -0.4509 
     23 C         -71.3683   30.8178  -73.5555 C.2       10 UNK         0.4899 
     24 O         -70.9323   31.8782  -74.0040 O.2       10 UNK        -0.4839 
     25 CA        -70.3722   29.7547  -73.0452 C.3       9 UNK         0.0222 
     26 CB        -69.7707   30.1936  -71.6997 C.3       9 UNK        -0.1966 
     27 N         -70.9331   28.4028  -72.8989 N.am      9 UNK        -0.4218 
     28 C         -71.4765   27.6673  -73.8804 C.2       9 UNK         0.5020 
     29 O         -71.5361   28.0411  -75.0554 O.2       9 UNK        -0.5274 
     30 CA        -72.0832   26.3189  -73.4580 C.3       8 UNK         0.0270 
     31 CB        -73.0686   26.4775  -72.2847 C.3       8 UNK        -0.1976 
     32 N         -72.8129   25.7420  -74.5821 N.am      8 UNK        -0.4313 
     33 C         -72.5981   24.5391  -75.1269 C.2       8 UNK         0.5041 
     34 O         -71.7691   23.7327  -74.7014 O.2       8 UNK        -0.5577 
     35 CA        -73.4518   24.1525  -76.3514 C.3       7 UNK         0.0284 
     36 CB        -74.5325   23.1380  -75.9525 C.3       7 UNK        -0.1958 
     37 N         -74.0979   25.2989  -76.9932 N.am      7 UNK        -0.4454 
     38 C         -73.4557   26.2279  -77.7146 C.2       7 UNK         0.5089 
     39 O         -72.2714   26.1358  -78.0386 O.2       7 UNK        -0.5125 
     40 CA        -74.2543   27.4741  -78.1458 C.3       6 UNK         0.0408 
     41 CB        -74.4968   27.4547  -79.6640 C.3       6 UNK        -0.1791 
     42 N         -75.5424   27.6569  -77.4666 N.am      6 UNK        -0.4762 
     43 C         -75.7453   27.8372  -76.1506 C.2       6 UNK         0.5007 
     44 O         -74.8404   27.8642  -75.3170 O.2       6 UNK        -0.5032 
     45 CA        -77.2146   27.9514  -75.6890 C.3       5 UNK         0.0783 
     46 C46       -77.6207   29.4370  -75.5181 C.3       11 UNK        -0.0857 
     47 S47       -79.2546   29.5937  -74.7137 S.3       11 UNK        -0.2512 
     48 C48       -78.8856   30.5518  -73.2006 C.3       11 UNK         0.0225 
     49 N         -78.1292   27.2406  -76.5976 N.am      5 UNK        -0.4615 
     50 C         -78.1628   25.9145  -76.7754 C.2       4 UNK         0.5053 
     51 O         -77.5140   25.1133  -76.1006 O.2       4 UNK        -0.5105 
     52 CA        -79.0244   25.4012  -77.9387 C.3       4 UNK         0.0263 
     53 CB        -78.2595   24.3635  -78.7793 C.3       4 UNK        -0.1981 
     54 N         -80.2765   24.8137  -77.4660 N.am      4 UNK        -0.4224 
     55 C         -81.3523   25.5260  -77.1016 C.2       3 UNK         0.4895 
     56 O         -81.3896   26.7563  -77.0906 O.2       3 UNK        -0.5091 
     57 CA        -82.5924   24.7296  -76.6824 C.3       3 UNK         0.0250 
     58 CB        -83.2326   24.0009  -77.8797 C.3       3 UNK        -0.1996 
     59 N         -82.2475   23.7887  -75.6200 N.am      3 UNK        -0.4254 
     60 C         -83.0992   23.3036  -74.7079 C.2       2 UNK         0.5004 
     61 O         -84.3118   23.5197  -74.7160 O.2       2 UNK        -0.5226 
     62 CA        -82.4968   22.4380  -73.5833 C.3       2 UNK         0.0269 
     63 CB        -82.7241   20.9456  -73.8738 C.3       2 UNK        -0.1926 
     64 N         -81.0636   22.6684  -73.3650 N.am      2 UNK        -0.4687 
     65 C         -80.5170   23.8091  -72.9213 C.2       1 UNK         0.5165 
     66 O         -81.1970   24.7797  -72.5835 O.2       1 UNK        -0.5079 
     67 H67       -77.3707   22.3399  -76.2281 H         1 UNK         0.0900 
     68 H68       -78.1815   20.7832  -76.0734 H         1 UNK         0.0900 
     69 H69       -76.5880   21.0200  -75.3506 H         1 UNK         0.0900 
     70 H70       -77.9924   23.9128  -74.7588 H         1 UNK         0.2959 
     71 H71       -78.6597   23.3364  -71.9969 H         1 UNK         0.1079 
     72 H72       -78.7509   25.9469  -73.5918 H         1 UNK         0.0837 
     73 H73       -79.0010   25.8163  -71.8696 H         1 UNK         0.0837 
     74 H74       -77.4452   26.3630  -70.2870 H         1 UNK         0.0685 
     75 H75       -75.7110   26.3507  -70.4216 H         1 UNK         0.0685 
     76 H76       -78.5774   28.0072  -72.2909 H         1 UNK         0.1434 
     77 H77       -76.6884   31.8328  -72.2699 H         1 UNK         0.1329 
     78 H78       -74.7321   28.4752  -70.4519 H         1 UNK         0.1335 
     79 H79       -74.4367   31.2142  -69.7952 H         1 UNK         0.0680 
     80 H80       -73.4420   30.5550  -71.0475 H         1 UNK         0.0680 
     81 H81       -73.1652   33.3077  -73.6631 H         1 UNK         0.1032 
     82 H82       -74.8769   33.1343  -73.8414 H         1 UNK         0.1032 
     83 H83       -74.6747   30.6564  -73.8434 H         1 UNK         0.0461 
     84 H84       -72.5041   29.7626  -75.8497 H         1 UNK         0.3453 
     85 H85       -73.0393   30.5436  -77.3230 H         1 UNK         0.3453 
     86 H86       -72.9089   29.5901  -73.1416 H         1 UNK         0.2984 
     87 H87       -69.5654   29.6947  -73.7783 H         1 UNK         0.0554 
     88 H88       -68.9946   29.5050  -71.3651 H         1 UNK         0.0847 
     89 H89       -70.5296   30.2537  -70.9184 H         1 UNK         0.0847 
     90 H90       -69.3103   31.1795  -71.7803 H         1 UNK         0.0847 
     91 H91       -70.9164   28.0143  -71.9668 H         1 UNK         0.3141 
     92 H92       -71.2608   25.6686  -73.1535 H         1 UNK         0.0743 
     93 H93       -73.8776   27.1636  -72.5385 H         1 UNK         0.0784 
     94 H94       -73.5216   25.5207  -72.0238 H         1 UNK         0.0784 
     95 H95       -72.5814   26.8515  -71.3841 H         1 UNK         0.0784 
     96 H96       -73.4671   26.3774  -75.0308 H         1 UNK         0.3213 
     97 H97       -72.7869   23.6795  -77.0773 H         1 UNK         0.0855 
     98 H98       -75.2419   23.5652  -75.2418 H         1 UNK         0.0814 
     99 H99       -74.0907   22.2573  -75.4845 H         1 UNK         0.0814 
    100 H100      -75.0881   22.7965  -76.8255 H         1 UNK         0.0814 
    101 H101      -75.0743   25.4492  -76.7772 H         1 UNK         0.3105 
    102 H102      -73.6346   28.3400  -77.9120 H         1 UNK         0.0547 
    103 H103      -73.5568   27.3596  -80.2096 H         1 UNK         0.0837 
    104 H104      -75.1304   26.6181  -79.9610 H         1 UNK         0.0837 
    105 H105      -74.9711   28.3754  -80.0038 H         1 UNK         0.0837 
    106 H106      -76.3584   27.6452  -78.0606 H         1 UNK         0.3020 
    107 H107      -77.2621   27.4663  -74.7122 H         1 UNK         0.1245 
    108 H108      -77.6620   29.9400  -76.4859 H         1 UNK         0.0781 
    109 H109      -76.8742   29.9788  -74.9352 H         1 UNK         0.0781 
    110 H110      -79.7811   30.5898  -72.5790 H         1 UNK         0.0836 
    111 H111      -78.6700   31.5810  -73.4916 H         1 UNK         0.0836 
    112 H112      -78.7557   27.8199  -77.1388 H         1 UNK         0.3022 
    113 H113      -79.2578   26.2413  -78.5970 H         1 UNK         0.0747 
    114 H114      -78.8274   24.0762  -79.6643 H         1 UNK         0.0793 
    115 H115      -77.3060   24.7659  -79.1248 H         1 UNK         0.0793 
    116 H116      -78.0430   23.4572  -78.2141 H         1 UNK         0.0793 
    117 H117      -80.3302   23.8061  -77.4705 H         1 UNK         0.3047 
    118 H118      -83.3159   25.4476  -76.2891 H         1 UNK         0.0822 
    119 H119      -84.1780   23.5358  -77.6001 H         1 UNK         0.0807 
    120 H120      -82.5836   23.2202  -78.2775 H         1 UNK         0.0807 
    121 H121      -83.4450   24.6971  -78.6923 H         1 UNK         0.0807 
    122 H122      -81.2659   23.5905  -75.4921 H         1 UNK         0.2946 
    123 H123      -83.0235   22.6966  -72.6619 H         1 UNK         0.1144 
    124 H124      -82.3773   20.3233  -73.0486 H         1 UNK         0.0793 
    125 H125      -82.2035   20.6264  -74.7776 H         1 UNK         0.0793 
    126 H126      -83.7847   20.7319  -74.0151 H         1 UNK         0.0793 
    127 H127      -80.4302   21.9017  -73.5698 H         1 UNK         0.2896 
@<TRIPOS>BOND
     1    1    2 1    
     2    1   67 1    
     3    1   68 1    
     4    1   69 1    
     5    2    3 2    
     6    2    4 am   BACKBONE|DICT|INTERRES
     7    4    5 1    
     8    4   70 1    
     9    5    6 1    
    10    5   65 1    
    11    5   71 1    
    12    6    7 1    
    13    6   72 1    
    14    6   73 1    
    15    7    8 1    
    16    8    9 1    
    17    8   74 1    
    18    8   75 1    
    19    9   10 ar   
    20    9   14 ar   
    21   10   11 ar   
    22   10   76 1    
    23   11   12 ar   
    24   11   48 1    
    25   12   13 ar   
    26   12   77 1    
    27   13   14 ar   
    28   13   15 1    
    29   14   78 1    
    30   15   16 1    
    31   15   79 1    
    32   15   80 1    
    33   16   17 1    
    34   17   18 1    
    35   17   81 1    
    36   17   82 1    
    37   18   19 1    
    38   18   22 1    
    39   18   83 1    
    40   19   20 am   BACKBONE|DICT|INTERRES
    41   19   21 2    
    42   20   84 1    
    43   20   85 1    
    44   22   23 am   BACKBONE|DICT|INTERRES
    45   22   86 1    
    46   23   24 2    
    47   23   25 1    
    48   25   26 1    
    49   25   27 1    
    50   25   87 1    
    51   26   88 1    
    52   26   89 1    
    53   26   90 1    
    54   27   28 am   BACKBONE|DICT|INTERRES
    55   27   91 1    
    56   28   29 2    
    57   28   30 1    
    58   30   31 1    
    59   30   32 1    
    60   30   92 1    
    61   31   93 1    
    62   31   94 1    
    63   31   95 1    
    64   32   33 am   BACKBONE|DICT|INTERRES
    65   32   96 1    
    66   33   34 2    
    67   33   35 1    
    68   35   36 1    
    69   35   37 1    
    70   35   97 1    
    71   36   98 1    
    72   36   99 1    
    73   36  100 1    
    74   37   38 am   BACKBONE|DICT|INTERRES
    75   37  101 1    
    76   38   39 2    
    77   38   40 1    
    78   40   41 1    
    79   40   42 1    
    80   40  102 1    
    81   41  103 1    
    82   41  104 1    
    83   41  105 1    
    84   42   43 am   BACKBONE|DICT|INTERRES
    85   42  106 1    
    86   43   44 2    
    87   43   45 1    
    88   45   46 1    
    89   45   49 1    
    90   45  107 1    
    91   46   47 1    
    92   46  108 1    
    93   46  109 1    
    94   47   48 1    
    95   48  110 1    
    96   48  111 1    
    97   49   50 am   BACKBONE|DICT|INTERRES
    98   49  112 1    
    99   50   51 2    
   100   50   52 1    
   101   52   53 1    
   102   52   54 1    
   103   52  113 1    
   104   53  114 1    
   105   53  115 1    
   106   53  116 1    
   107   54   55 am   BACKBONE|DICT|INTERRES
   108   54  117 1    
   109   55   56 2    
   110   55   57 1    
   111   57   58 1    
   112   57   59 1    
   113   57  118 1    
   114   58  119 1    
   115   58  120 1    
   116   58  121 1    
   117   59   60 am   BACKBONE|DICT|INTERRES
   118   59  122 1    
   119   60   61 2    
   120   60   62 1    
   121   62   63 1    
   122   62   64 1    
   123   62  123 1    
   124   63  124 1    
   125   63  125 1    
   126   63  126 1    
   127   64   65 am   BACKBONE|DICT|INTERRES
   128   64  127 1    
   129   65   66 2    
@<TRIPOS>SUBSTRUCTURE
     1 UNK         1 GROUP             0       ****    0 ROOT    
