@<TRIPOS>MOLECULE
3R135
127   129    1
SMALL
USER_CHARGES


@<TRIPOS>ATOM
      1 CA        -81.0135   23.0319  -71.5521 C.3       0 UNK        -0.1998 
      2 C         -81.1445   24.3260  -72.3384 C.2       0 UNK         0.4909 
      3 O         -80.2543   24.6437  -73.1288 O.2       0 UNK        -0.5240 
      4 N         -82.2521   25.0583  -72.1403 N.am      1 UNK        -0.4739 
      5 CA        -82.6179   26.3715  -72.7103 C.3       1 UNK         0.0864 
      6 C6        -81.6146   27.5005  -72.3671 C.3       11 UNK        -0.0881 
      7 S7        -81.4431   27.8248  -70.5798 S.3       11 UNK        -0.2682 
      8 C8        -79.6912   27.3893  -70.2829 C.3       11 UNK         0.0289 
      9 C9        -78.6338   28.2378  -71.0010 C.ar      11 UNK        -0.0687 
     10 C10       -78.9464   29.2974  -71.8653 C.ar      11 UNK        -0.0823 
     11 C11       -77.9442   29.9894  -72.5512 C.ar      11 UNK        -0.0830 
     12 C12       -76.6073   29.6487  -72.3339 C.ar      11 UNK        -0.1021 
     13 C13       -76.2740   28.6151  -71.4538 C.ar      11 UNK        -0.0753 
     14 C14       -77.2888   27.9166  -70.7949 C.ar      11 UNK        -0.0933 
     15 C15       -74.8176   28.2432  -71.2362 C.3       11 UNK         0.0166 
     16 S16       -73.9377   29.5606  -70.3396 S.3       11 UNK        -0.2615 
     17 C17       -72.1974   29.0786  -70.5945 C.3       11 UNK        -0.0865 
     18 CA        -71.5653   29.8044  -71.8110 C.3       10 UNK         0.0862 
     19 C         -70.0351   29.5617  -71.8667 C.2       10 UNK         0.5551 
     20 N         -69.2297   30.5828  -71.6102 N.am      10 UNK        -0.7319 
     21 O         -69.5788   28.4432  -72.0940 O.2       10 UNK        -0.5018 
     22 N         -72.2048   29.3819  -73.0607 N.am      10 UNK        -0.4509 
     23 C         -72.1784   30.0457  -74.2210 C.2       10 UNK         0.4899 
     24 O         -71.6671   31.1573  -74.3645 O.2       10 UNK        -0.4839 
     25 CA        -72.8559   29.3377  -75.4142 C.3       9 UNK         0.0222 
     26 CB        -72.4004   29.8961  -76.7792 C.3       9 UNK        -0.1966 
     27 N         -72.7146   27.8737  -75.3684 N.am      9 UNK        -0.4218 
     28 C         -71.5644   27.1802  -75.3865 C.2       9 UNK         0.5020 
     29 O         -70.4476   27.6840  -75.5099 O.2       9 UNK        -0.5274 
     30 CA        -71.6835   25.6610  -75.2299 C.3       8 UNK         0.0270 
     31 CB        -71.9822   25.2759  -73.7694 C.3       8 UNK        -0.1976 
     32 N         -72.7074   25.1125  -76.1217 N.am      8 UNK        -0.4313 
     33 C         -72.4496   24.6943  -77.3684 C.2       8 UNK         0.5041 
     34 O         -71.3392   24.7587  -77.8988 O.2       8 UNK        -0.5577 
     35 CA        -73.6076   24.0581  -78.1469 C.3       7 UNK         0.0284 
     36 CB        -73.9427   22.6682  -77.5792 C.3       7 UNK        -0.1958 
     37 N         -74.8114   24.8905  -78.1789 N.am      7 UNK        -0.4454 
     38 C         -74.9784   25.9291  -79.0101 C.2       7 UNK         0.5089 
     39 O         -74.0951   26.3641  -79.7499 O.2       7 UNK        -0.5125 
     40 CA        -76.3791   26.5634  -79.0634 C.3       6 UNK         0.0408 
     41 CB        -77.3793   25.6209  -79.7530 C.3       6 UNK        -0.1791 
     42 N         -76.8833   26.9337  -77.7426 N.am      6 UNK        -0.4762 
     43 C         -76.4369   27.9781  -77.0296 C.2       6 UNK         0.5007 
     44 O         -75.5935   28.7725  -77.4431 O.2       6 UNK        -0.5032 
     45 CA        -77.0034   28.1492  -75.6044 C.3       5 UNK         0.0783 
     46 C46       -78.2434   29.0822  -75.5646 C.3       11 UNK        -0.0857 
     47 S47       -77.7416   30.8080  -75.2350 S.3       11 UNK        -0.2512 
     48 C48       -78.3209   31.1010  -73.5261 C.3       11 UNK         0.0225 
     49 N         -77.2508   26.8597  -74.9587 N.am      5 UNK        -0.4615 
     50 C         -76.2751   26.0319  -74.5646 C.2       4 UNK         0.5053 
     51 O         -75.0739   26.2777  -74.6934 O.2       4 UNK        -0.5105 
     52 CA        -76.7141   24.6880  -73.9679 C.3       4 UNK         0.0263 
     53 CB        -77.0258   24.8343  -72.4718 C.3       4 UNK        -0.1981 
     54 N         -77.8693   24.1149  -74.6658 N.am      4 UNK        -0.4224 
     55 C         -77.8119   23.6407  -75.9190 C.2       3 UNK         0.4895 
     56 O         -76.7991   23.6792  -76.6149 O.2       3 UNK        -0.5091 
     57 CA        -79.0918   23.0386  -76.5148 C.3       3 UNK         0.0250 
     58 CB        -79.3287   21.6236  -75.9630 C.3       3 UNK        -0.1996 
     59 N         -80.2886   23.8516  -76.3047 N.am      3 UNK        -0.4254 
     60 C         -80.4673   25.1084  -76.7371 C.2       2 UNK         0.5004 
     61 O         -79.6053   25.7804  -77.3024 O.2       2 UNK        -0.5226 
     62 CA        -81.8305   25.7257  -76.4217 C.3       2 UNK         0.0269 
     63 CB        -82.9794   24.9916  -77.1414 C.3       2 UNK        -0.1926 
     64 N         -81.9902   25.6924  -74.9748 N.am      2 UNK        -0.4687 
     65 C         -82.8625   26.3755  -74.2355 C.2       1 UNK         0.5165 
     66 O         -83.7952   27.0294  -74.7037 O.2       1 UNK        -0.5079 
     67 H67       -80.9484   22.1847  -72.2341 H         1 UNK         0.0900 
     68 H68       -80.1064   23.0541  -70.9488 H         1 UNK         0.0900 
     69 H69       -81.8608   22.8700  -70.8863 H         1 UNK         0.0900 
     70 H70       -82.9405   24.6950  -71.4956 H         1 UNK         0.2959 
     71 H71       -83.5750   26.6320  -72.2550 H         1 UNK         0.1079 
     72 H72       -80.6375   27.2770  -72.7988 H         1 UNK         0.0837 
     73 H73       -81.9339   28.4401  -72.8234 H         1 UNK         0.0837 
     74 H74       -79.5109   27.4505  -69.2089 H         1 UNK         0.0685 
     75 H75       -79.5494   26.3434  -70.5585 H         1 UNK         0.0685 
     76 H76       -79.9727   29.5877  -72.0277 H         1 UNK         0.1434 
     77 H77       -75.8245   30.1853  -72.8527 H         1 UNK         0.1329 
     78 H78       -77.0315   27.1069  -70.1255 H         1 UNK         0.1335 
     79 H79       -74.7299   27.3103  -70.6771 H         1 UNK         0.0680 
     80 H80       -74.3594   28.0631  -72.2080 H         1 UNK         0.0680 
     81 H81       -71.6561   29.3340  -69.6813 H         1 UNK         0.1032 
     82 H82       -72.1188   27.9941  -70.6949 H         1 UNK         0.1032 
     83 H83       -71.7407   30.8758  -71.6902 H         1 UNK         0.0461 
     84 H84       -69.5989   31.5013  -71.4187 H         1 UNK         0.3453 
     85 H85       -68.2323   30.4371  -71.6259 H         1 UNK         0.3453 
     86 H86       -72.6021   28.4564  -73.0585 H         1 UNK         0.2984 
     87 H87       -73.9226   29.5416  -75.3164 H         1 UNK         0.0554 
     88 H88       -72.6542   30.9526  -76.8726 H         1 UNK         0.0847 
     89 H89       -72.8872   29.3739  -77.6030 H         1 UNK         0.0847 
     90 H90       -71.3223   29.8075  -76.9160 H         1 UNK         0.0847 
     91 H91       -73.5768   27.3477  -75.2420 H         1 UNK         0.3141 
     92 H92       -70.7135   25.2261  -75.4821 H         1 UNK         0.0743 
     93 H93       -72.9283   25.6824  -73.4139 H         1 UNK         0.0784 
     94 H94       -72.0184   24.1933  -73.6472 H         1 UNK         0.0784 
     95 H95       -71.2015   25.6497  -73.1051 H         1 UNK         0.0784 
     96 H96       -73.6591   25.0937  -75.7743 H         1 UNK         0.3213 
     97 H97       -73.2695   23.9133  -79.1758 H         1 UNK         0.0855 
     98 H98       -74.2813   22.7204  -76.5438 H         1 UNK         0.0814 
     99 H99       -73.0680   22.0168  -77.6024 H         1 UNK         0.0814 
    100 H100      -74.7253   22.1809  -78.1610 H         1 UNK         0.0814 
    101 H101      -75.5957   24.5770  -77.6074 H         1 UNK         0.3105 
    102 H102      -76.3109   27.4706  -79.6679 H         1 UNK         0.0547 
    103 H103      -77.0253   25.3309  -80.7431 H         1 UNK         0.0837 
    104 H104      -77.5376   24.7060  -79.1809 H         1 UNK         0.0837 
    105 H105      -78.3489   26.1016  -79.8833 H         1 UNK         0.0837 
    106 H106      -77.6269   26.3580  -77.3600 H         1 UNK         0.3020 
    107 H107      -76.2066   28.6162  -75.0214 H         1 UNK         0.1245 
    108 H108      -78.9450   28.7678  -74.7909 H         1 UNK         0.0781 
    109 H109      -78.8122   29.0446  -76.4959 H         1 UNK         0.0781 
    110 H110      -79.4024   31.2426  -73.5517 H         1 UNK         0.0836 
    111 H111      -77.9007   32.0421  -73.1691 H         1 UNK         0.0836 
    112 H112      -78.2112   26.5721  -74.8458 H         1 UNK         0.3022 
    113 H113      -75.8779   23.9930  -74.0716 H         1 UNK         0.0747 
    114 H114      -77.2869   23.8752  -72.0245 H         1 UNK         0.0793 
    115 H115      -76.1629   25.2233  -71.9299 H         1 UNK         0.0793 
    116 H116      -77.8564   25.5193  -72.3010 H         1 UNK         0.0793 
    117 H117      -78.7541   24.1102  -74.1632 H         1 UNK         0.3047 
    118 H118      -78.9405   22.9604  -77.5935 H         1 UNK         0.0822 
    119 H119      -80.1667   21.1375  -76.4629 H         1 UNK         0.0807 
    120 H120      -79.5370   21.6358  -74.8922 H         1 UNK         0.0807 
    121 H121      -78.4521   20.9926  -76.1178 H         1 UNK         0.0807 
    122 H122      -81.0567   23.4019  -75.8284 H         1 UNK         0.2946 
    123 H123      -81.8119   26.7674  -76.7503 H         1 UNK         0.1144 
    124 H124      -83.9297   25.5060  -76.9990 H         1 UNK         0.0793 
    125 H125      -83.1003   23.9686  -76.7842 H         1 UNK         0.0793 
    126 H126      -82.7984   24.9454  -78.2161 H         1 UNK         0.0793 
    127 H127      -81.2443   25.2277  -74.4566 H         1 UNK         0.2896 
@<TRIPOS>BOND
     1    1    2 1    
     2    1   67 1    
     3    1   68 1    
     4    1   69 1    
     5    2    3 2    
     6    2    4 am   BACKBONE|DICT|INTERRES
     7    4    5 1    
     8    4   70 1    
     9    5    6 1    
    10    5   65 1    
    11    5   71 1    
    12    6    7 1    
    13    6   72 1    
    14    6   73 1    
    15    7    8 1    
    16    8    9 1    
    17    8   74 1    
    18    8   75 1    
    19    9   10 ar   
    20    9   14 ar   
    21   10   11 ar   
    22   10   76 1    
    23   11   12 ar   
    24   11   48 1    
    25   12   13 ar   
    26   12   77 1    
    27   13   14 ar   
    28   13   15 1    
    29   14   78 1    
    30   15   16 1    
    31   15   79 1    
    32   15   80 1    
    33   16   17 1    
    34   17   18 1    
    35   17   81 1    
    36   17   82 1    
    37   18   19 1    
    38   18   22 1    
    39   18   83 1    
    40   19   20 am   BACKBONE|DICT|INTERRES
    41   19   21 2    
    42   20   84 1    
    43   20   85 1    
    44   22   23 am   BACKBONE|DICT|INTERRES
    45   22   86 1    
    46   23   24 2    
    47   23   25 1    
    48   25   26 1    
    49   25   27 1    
    50   25   87 1    
    51   26   88 1    
    52   26   89 1    
    53   26   90 1    
    54   27   28 am   BACKBONE|DICT|INTERRES
    55   27   91 1    
    56   28   29 2    
    57   28   30 1    
    58   30   31 1    
    59   30   32 1    
    60   30   92 1    
    61   31   93 1    
    62   31   94 1    
    63   31   95 1    
    64   32   33 am   BACKBONE|DICT|INTERRES
    65   32   96 1    
    66   33   34 2    
    67   33   35 1    
    68   35   36 1    
    69   35   37 1    
    70   35   97 1    
    71   36   98 1    
    72   36   99 1    
    73   36  100 1    
    74   37   38 am   BACKBONE|DICT|INTERRES
    75   37  101 1    
    76   38   39 2    
    77   38   40 1    
    78   40   41 1    
    79   40   42 1    
    80   40  102 1    
    81   41  103 1    
    82   41  104 1    
    83   41  105 1    
    84   42   43 am   BACKBONE|DICT|INTERRES
    85   42  106 1    
    86   43   44 2    
    87   43   45 1    
    88   45   46 1    
    89   45   49 1    
    90   45  107 1    
    91   46   47 1    
    92   46  108 1    
    93   46  109 1    
    94   47   48 1    
    95   48  110 1    
    96   48  111 1    
    97   49   50 am   BACKBONE|DICT|INTERRES
    98   49  112 1    
    99   50   51 2    
   100   50   52 1    
   101   52   53 1    
   102   52   54 1    
   103   52  113 1    
   104   53  114 1    
   105   53  115 1    
   106   53  116 1    
   107   54   55 am   BACKBONE|DICT|INTERRES
   108   54  117 1    
   109   55   56 2    
   110   55   57 1    
   111   57   58 1    
   112   57   59 1    
   113   57  118 1    
   114   58  119 1    
   115   58  120 1    
   116   58  121 1    
   117   59   60 am   BACKBONE|DICT|INTERRES
   118   59  122 1    
   119   60   61 2    
   120   60   62 1    
   121   62   63 1    
   122   62   64 1    
   123   62  123 1    
   124   63  124 1    
   125   63  125 1    
   126   63  126 1    
   127   64   65 am   BACKBONE|DICT|INTERRES
   128   64  127 1    
   129   65   66 2    
@<TRIPOS>SUBSTRUCTURE
     1 UNK         1 GROUP             0       ****    0 ROOT    
