@<TRIPOS>MOLECULE
3R135
127   129    1
SMALL
USER_CHARGES


@<TRIPOS>ATOM
      1 CA        -77.9754   22.9851  -71.6506 C.3       0 UNK        -0.1998 
      2 C         -79.2385   23.7507  -71.2843 C.2       0 UNK         0.4909 
      3 O         -79.6101   23.7833  -70.1106 O.2       0 UNK        -0.5240 
      4 N         -79.9043   24.3606  -72.2695 N.am      1 UNK        -0.4739 
      5 CA        -81.1630   25.0914  -72.1037 C.3       1 UNK         0.0864 
      6 C6        -80.9525   26.5226  -71.5301 C.3       11 UNK        -0.0881 
      7 S7        -80.1694   27.7085  -72.6834 S.3       11 UNK        -0.2682 
      8 C8        -79.4392   28.9088  -71.5230 C.3       11 UNK         0.0289 
      9 C9        -77.9262   28.7692  -71.4085 C.ar      11 UNK        -0.0687 
     10 C10       -77.3339   27.5254  -71.1704 C.ar      11 UNK        -0.0823 
     11 C11       -75.9443   27.4018  -71.0849 C.ar      11 UNK        -0.0830 
     12 C12       -75.1437   28.5420  -71.2000 C.ar      11 UNK        -0.1021 
     13 C13       -75.7226   29.7926  -71.4370 C.ar      11 UNK        -0.0753 
     14 C14       -77.1130   29.8987  -71.5370 C.ar      11 UNK        -0.0933 
     15 C15       -74.8504   31.0308  -71.5938 C.3       11 UNK         0.0166 
     16 S16       -73.9999   31.0844  -73.2051 S.3       11 UNK        -0.2615 
     17 C17       -75.3909   31.0658  -74.3921 C.3       11 UNK        -0.0865 
     18 CA        -75.5990   29.6603  -75.0298 C.3       10 UNK         0.0862 
     19 C         -76.9266   29.5343  -75.8340 C.2       10 UNK         0.5551 
     20 N         -76.9546   28.8092  -76.9460 N.am      10 UNK        -0.7319 
     21 O         -77.9562   30.0626  -75.4231 O.2       10 UNK        -0.5018 
     22 N         -74.4066   29.1362  -75.7223 N.am      10 UNK        -0.4509 
     23 C         -73.7436   29.7068  -76.7393 C.2       10 UNK         0.4899 
     24 O         -74.0753   30.7662  -77.2727 O.2       10 UNK        -0.4839 
     25 CA        -72.5051   28.9426  -77.2534 C.3       9 UNK         0.0222 
     26 CB        -71.5294   29.8230  -78.0632 C.3       9 UNK        -0.1966 
     27 N         -71.8267   28.2137  -76.1751 N.am      9 UNK        -0.4218 
     28 C         -71.1690   28.7206  -75.1204 C.2       9 UNK         0.5020 
     29 O         -70.8423   29.9024  -75.0082 O.2       9 UNK        -0.5274 
     30 CA        -70.8523   27.7507  -73.9679 C.3       8 UNK         0.0270 
     31 CB        -71.8297   27.9901  -72.8064 C.3       8 UNK        -0.1976 
     32 N         -70.9539   26.3461  -74.3728 N.am      8 UNK        -0.4313 
     33 C         -69.9129   25.5700  -74.7023 C.2       8 UNK         0.5041 
     34 O         -68.7383   25.9384  -74.6609 O.2       8 UNK        -0.5577 
     35 CA        -70.2350   24.1377  -75.1675 C.3       7 UNK         0.0284 
     36 CB        -70.3150   23.1863  -73.9626 C.3       7 UNK        -0.1958 
     37 N         -71.4771   24.0491  -75.9403 N.am      7 UNK        -0.4454 
     38 C         -71.6697   24.6097  -77.1426 C.2       7 UNK         0.5089 
     39 O         -70.7950   25.2098  -77.7664 O.2       7 UNK        -0.5125 
     40 CA        -73.0847   24.5187  -77.7430 C.3       6 UNK         0.0408 
     41 CB        -73.1588   23.3709  -78.7622 C.3       6 UNK        -0.1791 
     42 N         -74.1696   24.3662  -76.7639 N.am      6 UNK        -0.4762 
     43 C         -74.4625   25.2302  -75.7806 C.2       6 UNK         0.5007 
     44 O         -73.7982   26.2409  -75.5426 O.2       6 UNK        -0.5032 
     45 CA        -75.7573   24.9489  -75.0034 C.3       5 UNK         0.0783 
     46 C46       -75.8961   25.7384  -73.6749 C.3       11 UNK        -0.0857 
     47 S47       -74.5995   25.3655  -72.4410 S.3       11 UNK        -0.2512 
     48 C48       -75.3166   26.0273  -70.8973 C.3       11 UNK         0.0225 
     49 N         -76.8358   25.2374  -75.9456 N.am      5 UNK        -0.4615 
     50 C         -78.1074   24.8580  -75.8144 C.2       4 UNK         0.5053 
     51 O         -78.5389   24.2376  -74.8435 O.2       4 UNK        -0.5105 
     52 CA        -79.0500   25.2242  -76.9658 C.3       4 UNK         0.0263 
     53 CB        -79.7697   23.9797  -77.5126 C.3       4 UNK        -0.1981 
     54 N         -80.0412   26.1733  -76.4692 N.am      4 UNK        -0.4224 
     55 C         -80.2217   27.4155  -76.9406 C.2       3 UNK         0.4895 
     56 O         -79.5790   27.8784  -77.8857 O.2       3 UNK        -0.5091 
     57 CA        -81.2618   28.3147  -76.2380 C.3       3 UNK         0.0250 
     58 CB        -81.9765   29.2720  -77.2159 C.3       3 UNK        -0.1996 
     59 N         -82.2260   27.5877  -75.4025 N.am      3 UNK        -0.4254 
     60 C         -83.1720   26.7173  -75.7904 C.2       2 UNK         0.5004 
     61 O         -83.4266   26.4527  -76.9663 O.2       2 UNK        -0.5226 
     62 CA        -83.9388   26.0044  -74.6520 C.3       2 UNK         0.0269 
     63 CB        -84.6251   24.7023  -75.1188 C.3       2 UNK        -0.1926 
     64 N         -83.1058   25.7559  -73.4612 N.am      2 UNK        -0.4687 
     65 C         -81.9538   25.0656  -73.4273 C.2       1 UNK         0.5165 
     66 O         -81.4938   24.4757  -74.4063 O.2       1 UNK        -0.5079 
     67 H67       -77.6367   23.2107  -72.6602 H         1 UNK         0.0900 
     68 H68       -78.1577   21.9129  -71.5860 H         1 UNK         0.0900 
     69 H69       -77.1682   23.2331  -70.9629 H         1 UNK         0.0900 
     70 H70       -79.5844   24.2830  -73.2355 H         1 UNK         0.2959 
     71 H71       -81.7752   24.5311  -71.3932 H         1 UNK         0.1079 
     72 H72       -81.9061   26.9457  -71.2110 H         1 UNK         0.0837 
     73 H73       -80.3536   26.4612  -70.6204 H         1 UNK         0.0837 
     74 H74       -79.7005   29.9078  -71.8754 H         1 UNK         0.0685 
     75 H75       -79.8876   28.8097  -70.5338 H         1 UNK         0.0685 
     76 H76       -77.9564   26.6463  -71.0799 H         1 UNK         0.1434 
     77 H77       -74.0690   28.4536  -71.1291 H         1 UNK         0.1329 
     78 H78       -77.5632   30.8644  -71.7218 H         1 UNK         0.1335 
     79 H79       -75.4417   31.9397  -71.4717 H         1 UNK         0.0680 
     80 H80       -74.1012   31.0464  -70.8010 H         1 UNK         0.0680 
     81 H81       -75.2036   31.8144  -75.1624 H         1 UNK         0.1032 
     82 H82       -76.2947   31.3973  -73.8793 H         1 UNK         0.1032 
     83 H83       -75.7465   28.9780  -74.1954 H         1 UNK         0.0461 
     84 H84       -77.8359   28.6822  -77.4319 H         1 UNK         0.3453 
     85 H85       -76.1080   28.4077  -77.3108 H         1 UNK         0.3453 
     86 H86       -74.0877   28.2277  -75.4045 H         1 UNK         0.2984 
     87 H87       -72.8867   28.1763  -77.9295 H         1 UNK         0.0554 
     88 H88       -70.6578   29.2549  -78.3878 H         1 UNK         0.0847 
     89 H89       -71.1786   30.6795  -77.4872 H         1 UNK         0.0847 
     90 H90       -72.0126   30.2151  -78.9588 H         1 UNK         0.0847 
     91 H91       -72.0749   27.2340  -76.1188 H         1 UNK         0.3141 
     92 H92       -69.8424   27.9705  -73.6154 H         1 UNK         0.0743 
     93 H93       -71.6325   27.3179  -71.9713 H         1 UNK         0.0784 
     94 H94       -72.8642   27.8432  -73.1202 H         1 UNK         0.0784 
     95 H95       -71.7464   29.0105  -72.4299 H         1 UNK         0.0784 
     96 H96       -71.8894   25.9639  -74.4442 H         1 UNK         0.3213 
     97 H97       -69.4158   23.8083  -75.8108 H         1 UNK         0.0855 
     98 H98       -71.1329   23.4502  -73.2906 H         1 UNK         0.0814 
     99 H99       -69.3928   23.2175  -73.3804 H         1 UNK         0.0814 
    100 H100      -70.4597   22.1535  -74.2803 H         1 UNK         0.0814 
    101 H101      -72.2522   23.5625  -75.5140 H         1 UNK         0.3105 
    102 H102      -73.2633   25.4548  -78.2763 H         1 UNK         0.0547 
    103 H103      -72.3819   23.4714  -79.5217 H         1 UNK         0.0837 
    104 H104      -73.0242   22.3986  -78.2866 H         1 UNK         0.0837 
    105 H105      -74.1161   23.3617  -79.2836 H         1 UNK         0.0837 
    106 H106      -74.7799   23.5722  -76.9005 H         1 UNK         0.3020 
    107 H107      -75.7783   23.8827  -74.7667 H         1 UNK         0.1245 
    108 H108      -76.8621   25.5228  -73.2180 H         1 UNK         0.0781 
    109 H109      -75.8935   26.8087  -73.8705 H         1 UNK         0.0781 
    110 H110      -74.5340   26.0832  -70.1394 H         1 UNK         0.0836 
    111 H111      -76.0551   25.3211  -70.5169 H         1 UNK         0.0836 
    112 H112      -76.5554   25.7408  -76.7758 H         1 UNK         0.3022 
    113 H113      -78.4642   25.6583  -77.7786 H         1 UNK         0.0747 
    114 H114      -80.4260   24.2379  -78.3438 H         1 UNK         0.0793 
    115 H115      -79.0535   23.2430  -77.8782 H         1 UNK         0.0793 
    116 H116      -80.3777   23.4941  -76.7479 H         1 UNK         0.0793 
    117 H117      -80.5866   25.8475  -75.6775 H         1 UNK         0.3047 
    118 H118      -80.6844   28.9331  -75.5486 H         1 UNK         0.0822 
    119 H119      -82.6967   29.9049  -76.6977 H         1 UNK         0.0807 
    120 H120      -82.5059   28.7305  -78.0003 H         1 UNK         0.0807 
    121 H121      -81.2617   29.9338  -77.7066 H         1 UNK         0.0807 
    122 H122      -82.0891   27.7034  -74.4068 H         1 UNK         0.2946 
    123 H123      -84.7242   26.6972  -74.3445 H         1 UNK         0.1144 
    124 H124      -83.9056   23.9822  -75.5101 H         1 UNK         0.0793 
    125 H125      -85.3465   24.9026  -75.9120 H         1 UNK         0.0793 
    126 H126      -85.1680   24.2251  -74.3031 H         1 UNK         0.0793 
    127 H127      -83.4145   26.2139  -72.6144 H         1 UNK         0.2896 
@<TRIPOS>BOND
     1    1    2 1    
     2    1   67 1    
     3    1   68 1    
     4    1   69 1    
     5    2    3 2    
     6    2    4 am   BACKBONE|DICT|INTERRES
     7    4    5 1    
     8    4   70 1    
     9    5    6 1    
    10    5   65 1    
    11    5   71 1    
    12    6    7 1    
    13    6   72 1    
    14    6   73 1    
    15    7    8 1    
    16    8    9 1    
    17    8   74 1    
    18    8   75 1    
    19    9   10 ar   
    20    9   14 ar   
    21   10   11 ar   
    22   10   76 1    
    23   11   12 ar   
    24   11   48 1    
    25   12   13 ar   
    26   12   77 1    
    27   13   14 ar   
    28   13   15 1    
    29   14   78 1    
    30   15   16 1    
    31   15   79 1    
    32   15   80 1    
    33   16   17 1    
    34   17   18 1    
    35   17   81 1    
    36   17   82 1    
    37   18   19 1    
    38   18   22 1    
    39   18   83 1    
    40   19   20 am   BACKBONE|DICT|INTERRES
    41   19   21 2    
    42   20   84 1    
    43   20   85 1    
    44   22   23 am   BACKBONE|DICT|INTERRES
    45   22   86 1    
    46   23   24 2    
    47   23   25 1    
    48   25   26 1    
    49   25   27 1    
    50   25   87 1    
    51   26   88 1    
    52   26   89 1    
    53   26   90 1    
    54   27   28 am   BACKBONE|DICT|INTERRES
    55   27   91 1    
    56   28   29 2    
    57   28   30 1    
    58   30   31 1    
    59   30   32 1    
    60   30   92 1    
    61   31   93 1    
    62   31   94 1    
    63   31   95 1    
    64   32   33 am   BACKBONE|DICT|INTERRES
    65   32   96 1    
    66   33   34 2    
    67   33   35 1    
    68   35   36 1    
    69   35   37 1    
    70   35   97 1    
    71   36   98 1    
    72   36   99 1    
    73   36  100 1    
    74   37   38 am   BACKBONE|DICT|INTERRES
    75   37  101 1    
    76   38   39 2    
    77   38   40 1    
    78   40   41 1    
    79   40   42 1    
    80   40  102 1    
    81   41  103 1    
    82   41  104 1    
    83   41  105 1    
    84   42   43 am   BACKBONE|DICT|INTERRES
    85   42  106 1    
    86   43   44 2    
    87   43   45 1    
    88   45   46 1    
    89   45   49 1    
    90   45  107 1    
    91   46   47 1    
    92   46  108 1    
    93   46  109 1    
    94   47   48 1    
    95   48  110 1    
    96   48  111 1    
    97   49   50 am   BACKBONE|DICT|INTERRES
    98   49  112 1    
    99   50   51 2    
   100   50   52 1    
   101   52   53 1    
   102   52   54 1    
   103   52  113 1    
   104   53  114 1    
   105   53  115 1    
   106   53  116 1    
   107   54   55 am   BACKBONE|DICT|INTERRES
   108   54  117 1    
   109   55   56 2    
   110   55   57 1    
   111   57   58 1    
   112   57   59 1    
   113   57  118 1    
   114   58  119 1    
   115   58  120 1    
   116   58  121 1    
   117   59   60 am   BACKBONE|DICT|INTERRES
   118   59  122 1    
   119   60   61 2    
   120   60   62 1    
   121   62   63 1    
   122   62   64 1    
   123   62  123 1    
   124   63  124 1    
   125   63  125 1    
   126   63  126 1    
   127   64   65 am   BACKBONE|DICT|INTERRES
   128   64  127 1    
   129   65   66 2    
@<TRIPOS>SUBSTRUCTURE
     1 UNK         1 GROUP             0       ****    0 ROOT    
