@<TRIPOS>MOLECULE
3R135
127   129    1
SMALL
USER_CHARGES


@<TRIPOS>ATOM
      1 CA        -84.3742   25.7288  -71.2846 C.3       0 UNK        -0.1998 
      2 C         -83.0080   26.3619  -71.0365 C.2       0 UNK         0.4909 
      3 O         -82.4166   26.1303  -69.9843 O.2       0 UNK        -0.5240 
      4 N         -82.4627   27.1650  -71.9610 N.am      1 UNK        -0.4739 
      5 CA        -83.0113   27.5081  -73.2817 C.3       1 UNK         0.0864 
      6 C6        -82.4666   28.8716  -73.7835 C.3       11 UNK        -0.0881 
      7 S7        -80.6523   28.9153  -73.9913 S.3       11 UNK        -0.2682 
      8 C8        -80.1362   29.8274  -72.5054 C.3       11 UNK         0.0289 
      9 C9        -78.6469   29.6416  -72.2784 C.ar      11 UNK        -0.0687 
     10 C10       -78.1824   28.4975  -71.6214 C.ar      11 UNK        -0.0823 
     11 C11       -76.8097   28.2644  -71.4793 C.ar      11 UNK        -0.0830 
     12 C12       -75.9120   29.2246  -71.9547 C.ar      11 UNK        -0.1021 
     13 C13       -76.3613   30.3852  -72.5866 C.ar      11 UNK        -0.0753 
     14 C14       -77.7335   30.5879  -72.7528 C.ar      11 UNK        -0.0933 
     15 C15       -75.3543   31.4082  -73.0880 C.3       11 UNK         0.0166 
     16 S16       -75.0985   31.2503  -74.8804 S.3       11 UNK        -0.2615 
     17 C17       -73.4216   31.9413  -75.0790 C.3       11 UNK        -0.0865 
     18 CA        -72.4160   30.9127  -75.6788 C.3       10 UNK         0.0862 
     19 C         -71.0622   31.5694  -76.0934 C.2       10 UNK         0.5551 
     20 N         -69.9442   30.8536  -76.0609 N.am      10 UNK        -0.7319 
     21 O         -71.0227   32.7352  -76.4805 O.2       10 UNK        -0.5018 
     22 N         -72.2759   29.6693  -74.8887 N.am      10 UNK        -0.4509 
     23 C         -71.7691   29.5841  -73.6509 C.2       10 UNK         0.4899 
     24 O         -71.4591   30.5698  -72.9806 O.2       10 UNK        -0.4839 
     25 CA        -71.4965   28.1896  -73.0574 C.3       9 UNK         0.0222 
     26 CB        -72.1803   27.9825  -71.6947 C.3       9 UNK        -0.1966 
     27 N         -71.8402   27.0589  -73.9295 N.am      9 UNK        -0.4218 
     28 C         -70.9417   26.1676  -74.3739 C.2       9 UNK         0.5020 
     29 O         -69.7216   26.3188  -74.2906 O.2       9 UNK        -0.5274 
     30 CA        -71.4832   24.8568  -74.9657 C.3       8 UNK         0.0270 
     31 CB        -71.9997   23.9332  -73.8495 C.3       8 UNK        -0.1976 
     32 N         -72.5307   25.0625  -75.9631 N.am      8 UNK        -0.4313 
     33 C         -72.3059   25.5037  -77.2081 C.2       8 UNK         0.5041 
     34 O         -71.1875   25.7683  -77.6514 O.2       8 UNK        -0.5577 
     35 CA        -73.5330   25.6798  -78.1193 C.3       7 UNK         0.0284 
     36 CB        -73.8799   24.3542  -78.8153 C.3       7 UNK        -0.1958 
     37 N         -74.7093   26.1902  -77.4105 N.am      7 UNK        -0.4454 
     38 C         -74.7720   27.3950  -76.8274 C.2       7 UNK         0.5089 
     39 O         -73.8557   28.2132  -76.8687 O.2       7 UNK        -0.5125 
     40 CA        -76.0419   27.7257  -76.0256 C.3       6 UNK         0.0408 
     41 CB        -77.1729   28.2096  -76.9446 C.3       6 UNK        -0.1791 
     42 N         -76.5126   26.6074  -75.2117 N.am      6 UNK        -0.4762 
     43 C         -75.8195   26.0494  -74.2079 C.2       6 UNK         0.5007 
     44 O         -74.6882   26.4000  -73.8641 O.2       6 UNK        -0.5032 
     45 CA        -76.4977   24.8475  -73.5254 C.3       5 UNK         0.0783 
     46 C46       -77.6921   25.2964  -72.6390 C.3       11 UNK        -0.0857 
     47 S47       -77.3009   25.5120  -70.8699 S.3       11 UNK        -0.2512 
     48 C48       -76.2486   27.0070  -70.8120 C.3       11 UNK         0.0225 
     49 N         -76.9200   23.8739  -74.5371 N.am      5 UNK        -0.4615 
     50 C         -76.0946   23.1735  -75.3277 C.2       4 UNK         0.5053 
     51 O         -74.8680   23.2258  -75.2548 O.2       4 UNK        -0.5105 
     52 CA        -76.7478   22.2928  -76.4075 C.3       4 UNK         0.0263 
     53 CB        -77.0581   20.8963  -75.8462 C.3       4 UNK        -0.1981 
     54 N         -77.9705   22.8784  -76.9649 N.am      4 UNK        -0.4224 
     55 C         -78.0146   24.0175  -77.6716 C.2       3 UNK         0.4895 
     56 O         -77.0199   24.6729  -77.9750 O.2       3 UNK        -0.5091 
     57 CA        -79.4045   24.5434  -78.0666 C.3       3 UNK         0.0250 
     58 CB        -79.8300   23.9713  -79.4280 C.3       3 UNK        -0.1996 
     59 N         -80.4447   24.2692  -77.0688 N.am      3 UNK        -0.4254 
     60 C         -80.4284   24.7236  -75.8083 C.2       2 UNK         0.5004 
     61 O         -79.5066   25.3903  -75.3297 O.2       2 UNK        -0.5226 
     62 CA        -81.6029   24.3015  -74.9155 C.3       2 UNK         0.0269 
     63 CB        -81.2249   23.0663  -74.0815 C.3       2 UNK        -0.1926 
     64 N         -81.9705   25.3916  -74.0146 N.am      2 UNK        -0.4687 
     65 C         -82.8105   26.3875  -74.3294 C.2       1 UNK         0.5165 
     66 O         -83.4327   26.4387  -75.3915 O.2       1 UNK        -0.5079 
     67 H67       -84.3651   25.1053  -72.1777 H         1 UNK         0.0900 
     68 H68       -85.1429   26.4932  -71.3930 H         1 UNK         0.0900 
     69 H69       -84.6574   25.0945  -70.4447 H         1 UNK         0.0900 
     70 H70       -81.5547   27.5625  -71.7714 H         1 UNK         0.2959 
     71 H71       -84.0915   27.6284  -73.1810 H         1 UNK         0.1079 
     72 H72       -82.7703   29.6642  -73.0977 H         1 UNK         0.0837 
     73 H73       -82.9230   29.1319  -74.7407 H         1 UNK         0.0837 
     74 H74       -80.3819   30.8839  -72.6231 H         1 UNK         0.0685 
     75 H75       -80.6886   29.4743  -71.6336 H         1 UNK         0.0685 
     76 H76       -78.8957   27.7745  -71.2521 H         1 UNK         0.1434 
     77 H77       -74.8511   29.0744  -71.8376 H         1 UNK         0.1329 
     78 H78       -78.0868   31.4729  -73.2642 H         1 UNK         0.1335 
     79 H79       -75.6974   32.4180  -72.8584 H         1 UNK         0.0680 
     80 H80       -74.4047   31.2773  -72.5664 H         1 UNK         0.0680 
     81 H81       -73.0515   32.3374  -74.1327 H         1 UNK         0.1032 
     82 H82       -73.5179   32.8053  -75.7389 H         1 UNK         0.1032 
     83 H83       -72.8397   30.5934  -76.6306 H         1 UNK         0.0461 
     84 H84       -69.0749   31.2804  -76.3400 H         1 UNK         0.3453 
     85 H85       -69.9641   29.8915  -75.7632 H         1 UNK         0.3453 
     86 H86       -72.5440   28.8262  -75.3833 H         1 UNK         0.2984 
     87 H87       -70.4229   28.1963  -72.8597 H         1 UNK         0.0554 
     88 H88       -71.6796   27.1967  -71.1289 H         1 UNK         0.0847 
     89 H89       -73.2170   27.6785  -71.8121 H         1 UNK         0.0847 
     90 H90       -72.1587   28.8827  -71.0791 H         1 UNK         0.0847 
     91 H91       -72.8319   26.8489  -74.0325 H         1 UNK         0.3141 
     92 H92       -70.6490   24.3472  -75.4532 H         1 UNK         0.0743 
     93 H93       -71.2336   23.7697  -73.0904 H         1 UNK         0.0784 
     94 H94       -72.8736   24.3501  -73.3478 H         1 UNK         0.0784 
     95 H95       -72.2774   22.9554  -74.2436 H         1 UNK         0.0784 
     96 H96       -73.4770   24.8189  -75.6910 H         1 UNK         0.3213 
     97 H97       -73.2695   26.4092  -78.8882 H         1 UNK         0.0855 
     98 H98       -73.0232   23.9675  -79.3688 H         1 UNK         0.0814 
     99 H99       -74.6951   24.4814  -79.5278 H         1 UNK         0.0814 
    100 H100      -74.1779   23.5893  -78.0977 H         1 UNK         0.0814 
    101 H101      -75.5368   25.5962  -77.4023 H         1 UNK         0.3105 
    102 H102      -75.7959   28.5330  -75.3357 H         1 UNK         0.0547 
    103 H103      -76.8543   29.0744  -77.5280 H         1 UNK         0.0837 
    104 H104      -77.4839   27.4357  -77.6468 H         1 UNK         0.0837 
    105 H105      -78.0475   28.5124  -76.3678 H         1 UNK         0.0837 
    106 H106      -77.4352   26.2418  -75.4201 H         1 UNK         0.3020 
    107 H107      -75.7491   24.3559  -72.8997 H         1 UNK         0.1245 
    108 H108      -78.4669   24.5294  -72.6566 H         1 UNK         0.0781 
    109 H109      -78.1885   26.1862  -73.0293 H         1 UNK         0.0781 
    110 H110      -75.2868   26.7492  -71.2544 H         1 UNK         0.0836 
    111 H111      -76.0454   27.2393  -69.7659 H         1 UNK         0.0836 
    112 H112      -77.9122   23.8335  -74.7227 H         1 UNK         0.3022 
    113 H113      -76.0292   22.1815  -77.2220 H         1 UNK         0.0747 
    114 H114      -77.4439   20.2336  -76.6211 H         1 UNK         0.0793 
    115 H115      -76.1577   20.4302  -75.4431 H         1 UNK         0.0793 
    116 H116      -77.7926   20.9365  -75.0407 H         1 UNK         0.0793 
    117 H117      -78.8382   22.4003  -76.7720 H         1 UNK         0.3047 
    118 H118      -79.3231   25.6283  -78.1632 H         1 UNK         0.0822 
    119 H119      -80.7666   24.4126  -79.7693 H         1 UNK         0.0807 
    120 H120      -79.9613   22.8891  -79.3905 H         1 UNK         0.0807 
    121 H121      -79.0789   24.1820  -80.1909 H         1 UNK         0.0807 
    122 H122      -81.2305   23.7152  -77.3791 H         1 UNK         0.2946 
    123 H123      -82.4597   24.0477  -75.5444 H         1 UNK         0.1144 
    124 H124      -82.0568   22.7444  -73.4546 H         1 UNK         0.0793 
    125 H125      -80.3726   23.2594  -73.4298 H         1 UNK         0.0793 
    126 H126      -80.9614   22.2245  -74.7232 H         1 UNK         0.0793 
    127 H127      -81.4556   25.4602  -73.1490 H         1 UNK         0.2896 
@<TRIPOS>BOND
     1    1    2 1    
     2    1   67 1    
     3    1   68 1    
     4    1   69 1    
     5    2    3 2    
     6    2    4 am   BACKBONE|DICT|INTERRES
     7    4    5 1    
     8    4   70 1    
     9    5    6 1    
    10    5   65 1    
    11    5   71 1    
    12    6    7 1    
    13    6   72 1    
    14    6   73 1    
    15    7    8 1    
    16    8    9 1    
    17    8   74 1    
    18    8   75 1    
    19    9   10 ar   
    20    9   14 ar   
    21   10   11 ar   
    22   10   76 1    
    23   11   12 ar   
    24   11   48 1    
    25   12   13 ar   
    26   12   77 1    
    27   13   14 ar   
    28   13   15 1    
    29   14   78 1    
    30   15   16 1    
    31   15   79 1    
    32   15   80 1    
    33   16   17 1    
    34   17   18 1    
    35   17   81 1    
    36   17   82 1    
    37   18   19 1    
    38   18   22 1    
    39   18   83 1    
    40   19   20 am   BACKBONE|DICT|INTERRES
    41   19   21 2    
    42   20   84 1    
    43   20   85 1    
    44   22   23 am   BACKBONE|DICT|INTERRES
    45   22   86 1    
    46   23   24 2    
    47   23   25 1    
    48   25   26 1    
    49   25   27 1    
    50   25   87 1    
    51   26   88 1    
    52   26   89 1    
    53   26   90 1    
    54   27   28 am   BACKBONE|DICT|INTERRES
    55   27   91 1    
    56   28   29 2    
    57   28   30 1    
    58   30   31 1    
    59   30   32 1    
    60   30   92 1    
    61   31   93 1    
    62   31   94 1    
    63   31   95 1    
    64   32   33 am   BACKBONE|DICT|INTERRES
    65   32   96 1    
    66   33   34 2    
    67   33   35 1    
    68   35   36 1    
    69   35   37 1    
    70   35   97 1    
    71   36   98 1    
    72   36   99 1    
    73   36  100 1    
    74   37   38 am   BACKBONE|DICT|INTERRES
    75   37  101 1    
    76   38   39 2    
    77   38   40 1    
    78   40   41 1    
    79   40   42 1    
    80   40  102 1    
    81   41  103 1    
    82   41  104 1    
    83   41  105 1    
    84   42   43 am   BACKBONE|DICT|INTERRES
    85   42  106 1    
    86   43   44 2    
    87   43   45 1    
    88   45   46 1    
    89   45   49 1    
    90   45  107 1    
    91   46   47 1    
    92   46  108 1    
    93   46  109 1    
    94   47   48 1    
    95   48  110 1    
    96   48  111 1    
    97   49   50 am   BACKBONE|DICT|INTERRES
    98   49  112 1    
    99   50   51 2    
   100   50   52 1    
   101   52   53 1    
   102   52   54 1    
   103   52  113 1    
   104   53  114 1    
   105   53  115 1    
   106   53  116 1    
   107   54   55 am   BACKBONE|DICT|INTERRES
   108   54  117 1    
   109   55   56 2    
   110   55   57 1    
   111   57   58 1    
   112   57   59 1    
   113   57  118 1    
   114   58  119 1    
   115   58  120 1    
   116   58  121 1    
   117   59   60 am   BACKBONE|DICT|INTERRES
   118   59  122 1    
   119   60   61 2    
   120   60   62 1    
   121   62   63 1    
   122   62   64 1    
   123   62  123 1    
   124   63  124 1    
   125   63  125 1    
   126   63  126 1    
   127   64   65 am   BACKBONE|DICT|INTERRES
   128   64  127 1    
   129   65   66 2    
@<TRIPOS>SUBSTRUCTURE
     1 UNK         1 GROUP             0       ****    0 ROOT    
