@<TRIPOS>MOLECULE
3R135
127   129    1
SMALL
USER_CHARGES


@<TRIPOS>ATOM
      1 CA        -78.8520   24.7496  -69.5239 C.3       0 UNK        -0.1998 
      2 C         -80.1522   24.9590  -70.2850 C.2       0 UNK         0.4909 
      3 O         -81.1785   24.3907  -69.9111 O.2       0 UNK        -0.5240 
      4 N         -80.1172   25.7638  -71.3513 N.am      1 UNK        -0.4739 
      5 CA        -81.2420   26.0451  -72.2387 C.3       1 UNK         0.0864 
      6 C6        -82.2424   27.0732  -71.6331 C.3       11 UNK        -0.0881 
      7 S7        -81.8617   28.8514  -71.8202 S.3       11 UNK        -0.2682 
      8 C8        -80.4940   29.1161  -70.6403 C.3       11 UNK         0.0289 
      9 C9        -79.1328   29.1072  -71.3279 C.ar      11 UNK        -0.0687 
     10 C10       -78.9015   29.9318  -72.4330 C.ar      11 UNK        -0.0823 
     11 C11       -77.6683   29.9283  -73.0886 C.ar      11 UNK        -0.0830 
     12 C12       -76.6528   29.0865  -72.6207 C.ar      11 UNK        -0.1021 
     13 C13       -76.8536   28.2842  -71.4940 C.ar      11 UNK        -0.0753 
     14 C14       -78.0949   28.3019  -70.8493 C.ar      11 UNK        -0.0933 
     15 C15       -75.7317   27.3975  -70.9736 C.3       11 UNK         0.0166 
     16 S16       -74.5061   28.3512  -70.0171 S.3       11 UNK        -0.2615 
     17 C17       -73.2772   28.7923  -71.2947 C.3       11 UNK        -0.0865 
     18 CA        -73.4088   30.2570  -71.8193 C.3       10 UNK         0.0862 
     19 C         -72.5584   31.2902  -71.0177 C.2       10 UNK         0.5551 
     20 N         -72.0300   32.3325  -71.6478 N.am      10 UNK        -0.7319 
     21 O         -72.3950   31.1668  -69.8064 O.2       10 UNK        -0.5018 
     22 N         -73.2564   30.3213  -73.2846 N.am      10 UNK        -0.4509 
     23 C         -72.1699   29.9372  -73.9660 C.2       10 UNK         0.4899 
     24 O         -71.0991   29.6143  -73.4470 O.2       10 UNK        -0.4839 
     25 CA        -72.3143   29.8889  -75.4966 C.3       9 UNK         0.0222 
     26 CB        -71.6265   31.1006  -76.1454 C.3       9 UNK        -0.1966 
     27 N         -71.7667   28.6512  -76.0628 N.am      9 UNK        -0.4218 
     28 C         -72.1893   27.4156  -75.7580 C.2       9 UNK         0.5020 
     29 O         -73.0885   27.1721  -74.9523 O.2       9 UNK        -0.5274 
     30 CA        -71.4677   26.2512  -76.4419 C.3       8 UNK         0.0270 
     31 CB        -70.3985   25.6510  -75.5090 C.3       8 UNK        -0.1976 
     32 N         -72.4495   25.2341  -76.8171 N.am      8 UNK        -0.4313 
     33 C         -72.2603   24.2985  -77.7568 C.2       8 UNK         0.5041 
     34 O         -71.2065   24.1584  -78.3800 O.2       8 UNK        -0.5577 
     35 CA        -73.4463   23.3776  -78.0839 C.3       7 UNK         0.0284 
     36 CB        -73.6455   22.3077  -76.9969 C.3       7 UNK        -0.1958 
     37 N         -74.6776   24.1453  -78.2736 N.am      7 UNK        -0.4454 
     38 C         -75.0033   24.7717  -79.4141 C.2       7 UNK         0.5089 
     39 O         -74.3374   24.6969  -80.4475 O.2       7 UNK        -0.5125 
     40 CA        -76.2838   25.6290  -79.4197 C.3       6 UNK         0.0408 
     41 CB        -77.4701   24.8179  -79.9638 C.3       6 UNK        -0.1791 
     42 N         -76.6347   26.1735  -78.1074 N.am      6 UNK        -0.4762 
     43 C         -75.9068   27.0701  -77.4260 C.2       6 UNK         0.5007 
     44 O         -74.8880   27.6002  -77.8699 O.2       6 UNK        -0.5032 
     45 CA        -76.3833   27.3959  -75.9946 C.3       5 UNK         0.0783 
     46 C46       -77.3772   28.5862  -75.9911 C.3       11 UNK        -0.0857 
     47 S47       -76.4973   30.1500  -75.6574 S.3       11 UNK        -0.2512 
     48 C48       -77.4655   30.8586  -74.2836 C.3       11 UNK         0.0225 
     49 N         -76.9069   26.2241  -75.2819 N.am      5 UNK        -0.4615 
     50 C         -76.2116   25.1017  -75.0418 C.2       4 UNK         0.5053 
     51 O         -75.0500   24.9198  -75.4011 O.2       4 UNK        -0.5105 
     52 CA        -76.9623   23.9582  -74.3483 C.3       4 UNK         0.0263 
     53 CB        -77.0783   24.2099  -72.8361 C.3       4 UNK        -0.1981 
     54 N         -78.2861   23.7733  -74.9443 N.am      4 UNK        -0.4224 
     55 C         -78.4893   23.2311  -76.1554 C.2       3 UNK         0.4895 
     56 O         -77.5957   22.7354  -76.8418 O.2       3 UNK        -0.5091 
     57 CA        -79.9238   23.2716  -76.7115 C.3       3 UNK         0.0250 
     58 CB        -80.6983   22.0104  -76.2972 C.3       3 UNK        -0.1996 
     59 N         -80.6708   24.4619  -76.2960 N.am      3 UNK        -0.4254 
     60 C         -80.3757   25.7167  -76.6675 C.2       2 UNK         0.5004 
     61 O         -79.4655   26.0053  -77.4431 O.2       2 UNK        -0.5226 
     62 CA        -81.2006   26.8416  -76.0166 C.3       2 UNK         0.0269 
     63 CB        -82.4657   27.1317  -76.8389 C.3       2 UNK        -0.1926 
     64 N         -81.5711   26.5602  -74.6229 N.am      2 UNK        -0.4687 
     65 C         -80.6835   26.3915  -73.6328 C.2       1 UNK         0.5165 
     66 O         -79.4619   26.4512  -73.8087 O.2       1 UNK        -0.5079 
     67 H67       -78.6815   23.6863  -69.3574 H         1 UNK         0.0900 
     68 H68       -77.9951   25.1436  -70.0673 H         1 UNK         0.0900 
     69 H69       -78.9006   25.2436  -68.5540 H         1 UNK         0.0900 
     70 H70       -79.2534   26.1905  -71.6638 H         1 UNK         0.2959 
     71 H71       -81.7800   25.1036  -72.3726 H         1 UNK         0.1079 
     72 H72       -82.4110   26.8633  -70.5757 H         1 UNK         0.0837 
     73 H73       -83.2167   26.9225  -72.1003 H         1 UNK         0.0837 
     74 H74       -80.6312   30.0858  -70.1605 H         1 UNK         0.0685 
     75 H75       -80.5418   28.3697  -69.8460 H         1 UNK         0.0685 
     76 H76       -79.6951   30.5752  -72.7877 H         1 UNK         0.1434 
     77 H77       -75.6990   29.0582  -73.1254 H         1 UNK         0.1329 
     78 H78       -78.2531   27.6894  -69.9728 H         1 UNK         0.1335 
     79 H79       -75.2577   26.8679  -71.8014 H         1 UNK         0.0680 
     80 H80       -76.1381   26.6238  -70.3219 H         1 UNK         0.0680 
     81 H81       -73.3747   28.0796  -72.1151 H         1 UNK         0.1032 
     82 H82       -72.2771   28.6110  -70.8962 H         1 UNK         0.1032 
     83 H83       -74.4357   30.5812  -71.6504 H         1 UNK         0.0461 
     84 H84       -72.1593   32.4460  -72.6402 H         1 UNK         0.3453 
     85 H85       -71.4882   33.0040  -71.1269 H         1 UNK         0.3453 
     86 H86       -74.0743   30.6146  -73.7992 H         1 UNK         0.2984 
     87 H87       -73.3754   29.9178  -75.7530 H         1 UNK         0.0554 
     88 H88       -72.0391   32.0350  -75.7624 H         1 UNK         0.0847 
     89 H89       -71.7670   31.1070  -77.2265 H         1 UNK         0.0847 
     90 H90       -70.5543   31.1120  -75.9443 H         1 UNK         0.0847 
     91 H91       -70.9943   28.7539  -76.7047 H         1 UNK         0.3141 
     92 H92       -70.9868   26.6242  -77.3488 H         1 UNK         0.0743 
     93 H93       -70.8460   25.2335  -74.6061 H         1 UNK         0.0784 
     94 H94       -69.8358   24.8581  -76.0017 H         1 UNK         0.0784 
     95 H95       -69.6809   26.4109  -75.1969 H         1 UNK         0.0784 
     96 H96       -73.3431   25.2938  -76.3290 H         1 UNK         0.3213 
     97 H97       -73.2155   22.8549  -79.0150 H         1 UNK         0.0855 
     98 H98       -73.8176   22.7432  -76.0131 H         1 UNK         0.0814 
     99 H99       -72.7631   21.6717  -76.9166 H         1 UNK         0.0814 
    100 H100      -74.4923   21.6611  -77.2280 H         1 UNK         0.0814 
    101 H101      -75.2541   24.2919  -77.4536 H         1 UNK         0.3105 
    102 H102      -76.1119   26.4720  -80.0920 H         1 UNK         0.0547 
    103 H103      -77.2546   24.4308  -80.9606 H         1 UNK         0.0837 
    104 H104      -77.7010   23.9646  -79.3254 H         1 UNK         0.0837 
    105 H105      -78.3685   25.4305  -80.0414 H         1 UNK         0.0837 
    106 H106      -77.5148   25.8636  -77.7036 H         1 UNK         0.3020 
    107 H107      -75.4927   27.6821  -75.4339 H         1 UNK         0.1245 
    108 H108      -78.1471   28.4398  -75.2332 H         1 UNK         0.0781 
    109 H109      -77.9253   28.6755  -76.9316 H         1 UNK         0.0781 
    110 H110      -78.4299   31.1737  -74.6854 H         1 UNK         0.0836 
    111 H111      -76.9679   31.7651  -73.9372 H         1 UNK         0.0836 
    112 H112      -77.8515   26.2986  -74.9160 H         1 UNK         0.3022 
    113 H113      -76.3896   23.0391  -74.4929 H         1 UNK         0.0747 
    114 H114      -77.6584   23.4292  -72.3440 H         1 UNK         0.0793 
    115 H115      -76.0909   24.2214  -72.3729 H         1 UNK         0.0793 
    116 H116      -77.5441   25.1693  -72.6160 H         1 UNK         0.0793 
    117 H117      -79.0641   24.2051  -74.4676 H         1 UNK         0.3047 
    118 H118      -79.8516   23.2865  -77.8014 H         1 UNK         0.0822 
    119 H119      -81.6882   21.9846  -76.7531 H         1 UNK         0.0807 
    120 H120      -80.8236   21.9478  -75.2155 H         1 UNK         0.0807 
    121 H121      -80.1734   21.1088  -76.6169 H         1 UNK         0.0807 
    122 H122      -81.4442   24.3208  -75.6627 H         1 UNK         0.2946 
    123 H123      -80.5777   27.7392  -76.0191 H         1 UNK         0.1144 
    124 H124      -82.2124   27.3626  -77.8747 H         1 UNK         0.0793 
    125 H125      -83.0086   27.9896  -76.4417 H         1 UNK         0.0793 
    126 H126      -83.1459   26.2792  -76.8518 H         1 UNK         0.0793 
    127 H127      -82.5583   26.5083  -74.4151 H         1 UNK         0.2896 
@<TRIPOS>BOND
     1    1    2 1    
     2    1   67 1    
     3    1   68 1    
     4    1   69 1    
     5    2    3 2    
     6    2    4 am   BACKBONE|DICT|INTERRES
     7    4    5 1    
     8    4   70 1    
     9    5    6 1    
    10    5   65 1    
    11    5   71 1    
    12    6    7 1    
    13    6   72 1    
    14    6   73 1    
    15    7    8 1    
    16    8    9 1    
    17    8   74 1    
    18    8   75 1    
    19    9   10 ar   
    20    9   14 ar   
    21   10   11 ar   
    22   10   76 1    
    23   11   12 ar   
    24   11   48 1    
    25   12   13 ar   
    26   12   77 1    
    27   13   14 ar   
    28   13   15 1    
    29   14   78 1    
    30   15   16 1    
    31   15   79 1    
    32   15   80 1    
    33   16   17 1    
    34   17   18 1    
    35   17   81 1    
    36   17   82 1    
    37   18   19 1    
    38   18   22 1    
    39   18   83 1    
    40   19   20 am   BACKBONE|DICT|INTERRES
    41   19   21 2    
    42   20   84 1    
    43   20   85 1    
    44   22   23 am   BACKBONE|DICT|INTERRES
    45   22   86 1    
    46   23   24 2    
    47   23   25 1    
    48   25   26 1    
    49   25   27 1    
    50   25   87 1    
    51   26   88 1    
    52   26   89 1    
    53   26   90 1    
    54   27   28 am   BACKBONE|DICT|INTERRES
    55   27   91 1    
    56   28   29 2    
    57   28   30 1    
    58   30   31 1    
    59   30   32 1    
    60   30   92 1    
    61   31   93 1    
    62   31   94 1    
    63   31   95 1    
    64   32   33 am   BACKBONE|DICT|INTERRES
    65   32   96 1    
    66   33   34 2    
    67   33   35 1    
    68   35   36 1    
    69   35   37 1    
    70   35   97 1    
    71   36   98 1    
    72   36   99 1    
    73   36  100 1    
    74   37   38 am   BACKBONE|DICT|INTERRES
    75   37  101 1    
    76   38   39 2    
    77   38   40 1    
    78   40   41 1    
    79   40   42 1    
    80   40  102 1    
    81   41  103 1    
    82   41  104 1    
    83   41  105 1    
    84   42   43 am   BACKBONE|DICT|INTERRES
    85   42  106 1    
    86   43   44 2    
    87   43   45 1    
    88   45   46 1    
    89   45   49 1    
    90   45  107 1    
    91   46   47 1    
    92   46  108 1    
    93   46  109 1    
    94   47   48 1    
    95   48  110 1    
    96   48  111 1    
    97   49   50 am   BACKBONE|DICT|INTERRES
    98   49  112 1    
    99   50   51 2    
   100   50   52 1    
   101   52   53 1    
   102   52   54 1    
   103   52  113 1    
   104   53  114 1    
   105   53  115 1    
   106   53  116 1    
   107   54   55 am   BACKBONE|DICT|INTERRES
   108   54  117 1    
   109   55   56 2    
   110   55   57 1    
   111   57   58 1    
   112   57   59 1    
   113   57  118 1    
   114   58  119 1    
   115   58  120 1    
   116   58  121 1    
   117   59   60 am   BACKBONE|DICT|INTERRES
   118   59  122 1    
   119   60   61 2    
   120   60   62 1    
   121   62   63 1    
   122   62   64 1    
   123   62  123 1    
   124   63  124 1    
   125   63  125 1    
   126   63  126 1    
   127   64   65 am   BACKBONE|DICT|INTERRES
   128   64  127 1    
   129   65   66 2    
@<TRIPOS>SUBSTRUCTURE
     1 UNK         1 GROUP             0       ****    0 ROOT    
