@<TRIPOS>MOLECULE
3R135
127   129    1
SMALL
USER_CHARGES


@<TRIPOS>ATOM
      1 CA        -77.0359   26.7227  -70.0829 C.3       0 UNK        -0.1998 
      2 C         -78.2026   26.5998  -71.0513 C.2       0 UNK         0.4909 
      3 O         -78.0474   26.9219  -72.2273 O.2       0 UNK        -0.5240 
      4 N         -79.3639   26.1419  -70.5591 N.am      1 UNK        -0.4739 
      5 CA        -80.6117   25.9472  -71.3152 C.3       1 UNK         0.0864 
      6 C6        -81.1887   27.2794  -71.8788 C.3       11 UNK        -0.0881 
      7 S7        -81.7475   28.4604  -70.5979 S.3       11 UNK        -0.2682 
      8 C8        -80.2624   29.4429  -70.1675 C.3       11 UNK         0.0289 
      9 C9        -79.4710   30.0384  -71.3334 C.ar      11 UNK        -0.0687 
     10 C10       -80.0522   30.3117  -72.5776 C.ar      11 UNK        -0.0823 
     11 C11       -79.2755   30.7756  -73.6426 C.ar      11 UNK        -0.0830 
     12 C12       -77.9220   31.0553  -73.4345 C.ar      11 UNK        -0.1021 
     13 C13       -77.3313   30.8115  -72.1924 C.ar      11 UNK        -0.0753 
     14 C14       -78.1104   30.3042  -71.1492 C.ar      11 UNK        -0.0933 
     15 C15       -75.8481   31.0718  -71.9853 C.3       11 UNK         0.0166 
     16 S16       -74.8339   29.9474  -72.9930 S.3       11 UNK        -0.2615 
     17 C17       -73.1708   30.2858  -72.3147 C.3       11 UNK        -0.0865 
     18 CA        -72.4591   29.0156  -71.7807 C.3       10 UNK         0.0862 
     19 C         -73.0764   28.4868  -70.4515 C.2       10 UNK         0.5551 
     20 N         -73.4561   27.2186  -70.3514 N.am      10 UNK        -0.7319 
     21 O         -73.1944   29.2392  -69.4876 O.2       10 UNK        -0.5018 
     22 N         -72.3207   28.0178  -72.8501 N.am      10 UNK        -0.4509 
     23 C         -71.3552   27.0972  -72.9495 C.2       10 UNK         0.4899 
     24 O         -70.4598   26.9462  -72.1185 O.2       10 UNK        -0.4839 
     25 CA        -71.3871   26.1961  -74.1964 C.3       9 UNK         0.0222 
     26 CB        -71.9976   24.8262  -73.8615 C.3       9 UNK        -0.1966 
     27 N         -72.1324   26.7957  -75.3066 N.am      9 UNK        -0.4218 
     28 C         -71.6714   27.7702  -76.1032 C.2       9 UNK         0.5020 
     29 O         -70.5464   28.2640  -76.0008 O.2       9 UNK        -0.5274 
     30 CA        -72.6403   28.2590  -77.1987 C.3       8 UNK         0.0270 
     31 CB        -71.9786   29.2043  -78.2236 C.3       8 UNK        -0.1976 
     32 N         -73.3222   27.1475  -77.8725 N.am      8 UNK        -0.4313 
     33 C         -72.7602   26.1302  -78.5454 C.2       8 UNK         0.5041 
     34 O         -71.5530   26.0370  -78.7723 O.2       8 UNK        -0.5577 
     35 CA        -73.6874   24.9979  -79.0251 C.3       7 UNK         0.0284 
     36 CB        -73.4533   23.7334  -78.1809 C.3       7 UNK        -0.1958 
     37 N         -75.1099   25.3417  -78.9733 N.am      7 UNK        -0.4454 
     38 C         -75.7372   26.1459  -79.8407 C.2       7 UNK         0.5089 
     39 O         -75.1956   26.6519  -80.8238 O.2       7 UNK        -0.5125 
     40 CA        -77.2117   26.4652  -79.5379 C.3       6 UNK         0.0408 
     41 CB        -78.1269   25.3400  -80.0462 C.3       6 UNK        -0.1791 
     42 N         -77.4765   26.7101  -78.1155 N.am      6 UNK        -0.4762 
     43 C         -76.9455   27.7091  -77.3922 C.2       6 UNK         0.5007 
     44 O         -76.1225   28.5113  -77.8333 O.2       6 UNK        -0.5032 
     45 CA        -77.3772   27.7934  -75.9139 C.3       5 UNK         0.0783 
     46 C46       -78.8185   28.3524  -75.7599 C.3       11 UNK        -0.0857 
     47 S47       -78.9652   30.0855  -76.3425 S.3       11 UNK        -0.2512 
     48 C48       -79.9018   30.9327  -75.0220 C.3       11 UNK         0.0225 
     49 N         -77.2115   26.4829  -75.2775 N.am      5 UNK        -0.4615 
     50 C         -76.0197   25.9249  -75.0104 C.2       4 UNK         0.5053 
     51 O         -74.9426   26.4976  -75.1841 O.2       4 UNK        -0.5105 
     52 CA        -75.9991   24.4594  -74.5347 C.3       4 UNK         0.0263 
     53 CB        -75.9210   24.3567  -73.0046 C.3       4 UNK        -0.1981 
     54 N         -77.1267   23.6646  -75.0263 N.am      4 UNK        -0.4224 
     55 C         -77.3323   23.3735  -76.3185 C.2       3 UNK         0.4895 
     56 O         -76.5624   23.7041  -77.2183 O.2       3 UNK        -0.5091 
     57 CA        -78.6191   22.6190  -76.6919 C.3       3 UNK         0.0250 
     58 CB        -78.3227   21.1231  -76.8818 C.3       3 UNK        -0.1996 
     59 N         -79.7282   22.7766  -75.7463 N.am      3 UNK        -0.4254 
     60 C         -80.3023   23.9361  -75.3950 C.2       2 UNK         0.5004 
     61 O         -79.9080   25.0386  -75.7839 O.2       2 UNK        -0.5226 
     62 CA        -81.5279   23.8604  -74.4624 C.3       2 UNK         0.0269 
     63 CB        -81.8634   22.4387  -73.9517 C.3       2 UNK        -0.1926 
     64 N         -81.4240   24.8004  -73.3411 N.am      2 UNK        -0.4687 
     65 C         -80.4743   24.8373  -72.3928 C.2       1 UNK         0.5165 
     66 O         -79.5575   24.0128  -72.3252 O.2       1 UNK        -0.5079 
     67 H67       -76.5357   27.6815  -70.2200 H         1 UNK         0.0900 
     68 H68       -77.3593   26.6545  -69.0445 H         1 UNK         0.0900 
     69 H69       -76.3102   25.9322  -70.2702 H         1 UNK         0.0900 
     70 H70       -79.4073   25.8611  -69.5899 H         1 UNK         0.2959 
     71 H71       -81.3345   25.5522  -70.5997 H         1 UNK         0.1079 
     72 H72       -80.4776   27.7411  -72.5610 H         1 UNK         0.0837 
     73 H73       -82.0812   27.1008  -72.4784 H         1 UNK         0.0837 
     74 H74       -80.5749   30.2604  -69.5168 H         1 UNK         0.0685 
     75 H75       -79.6089   28.8121  -69.5641 H         1 UNK         0.0685 
     76 H76       -81.1032   30.1157  -72.7354 H         1 UNK         0.1434 
     77 H77       -77.3157   31.4220  -74.2516 H         1 UNK         0.1329 
     78 H78       -77.6512   30.0990  -70.1920 H         1 UNK         0.1335 
     79 H79       -75.5825   30.9495  -70.9338 H         1 UNK         0.0680 
     80 H80       -75.6178   32.1047  -72.2502 H         1 UNK         0.0680 
     81 H81       -72.5714   30.7282  -73.1119 H         1 UNK         0.1032 
     82 H82       -73.2222   31.0514  -71.5383 H         1 UNK         0.1032 
     83 H83       -71.4484   29.3256  -71.5084 H         1 UNK         0.0461 
     84 H84       -73.8343   26.8842  -69.4801 H         1 UNK         0.3453 
     85 H85       -73.3431   26.5946  -71.1323 H         1 UNK         0.3453 
     86 H86       -73.0395   28.0436  -73.5594 H         1 UNK         0.2984 
     87 H87       -70.3553   26.0387  -74.5177 H         1 UNK         0.0554 
     88 H88       -71.4403   24.3347  -73.0628 H         1 UNK         0.0847 
     89 H89       -71.9790   24.1614  -74.7254 H         1 UNK         0.0847 
     90 H90       -73.0312   24.9161  -73.5303 H         1 UNK         0.0847 
     91 H91       -73.1057   26.5140  -75.4133 H         1 UNK         0.3141 
     92 H92       -73.4192   28.8244  -76.6842 H         1 UNK         0.0743 
     93 H93       -71.5751   30.0908  -77.7327 H         1 UNK         0.0784 
     94 H94       -71.1549   28.7206  -78.7494 H         1 UNK         0.0784 
     95 H95       -72.6983   29.5455  -78.9678 H         1 UNK         0.0784 
     96 H96       -74.3287   27.1357  -77.7608 H         1 UNK         0.3213 
     97 H97       -73.4231   24.7742  -80.0609 H         1 UNK         0.0855 
     98 H98       -73.6917   23.9024  -77.1300 H         1 UNK         0.0814 
     99 H99       -72.4114   23.4144  -78.2320 H         1 UNK         0.0814 
    100 H100      -74.0643   22.9019  -78.5327 H         1 UNK         0.0814 
    101 H101      -75.6587   24.9001  -78.2357 H         1 UNK         0.3105 
    102 H102      -77.4682   27.3790  -80.0778 H         1 UNK         0.0547 
    103 H103      -79.1789   25.5843  -79.8988 H         1 UNK         0.0837 
    104 H104      -77.9809   25.1737  -81.1144 H         1 UNK         0.0837 
    105 H105      -77.9265   24.3946  -79.5413 H         1 UNK         0.0837 
    106 H106      -78.1162   26.0771  -77.6553 H         1 UNK         0.3020 
    107 H107      -76.6979   28.4862  -75.4100 H         1 UNK         0.1245 
    108 H108      -79.1148   28.2957  -74.7118 H         1 UNK         0.0781 
    109 H109      -79.5382   27.7388  -76.3044 H         1 UNK         0.0781 
    110 H110      -80.9245   30.5525  -75.0299 H         1 UNK         0.0836 
    111 H111      -79.9667   31.9949  -75.2610 H         1 UNK         0.0836 
    112 H112      -78.0560   25.9460  -75.1192 H         1 UNK         0.3022 
    113 H113      -75.0857   24.0186  -74.9398 H         1 UNK         0.0747 
    114 H114      -75.2277   25.0879  -72.5871 H         1 UNK         0.0793 
    115 H115      -76.8917   24.5289  -72.5438 H         1 UNK         0.0793 
    116 H116      -75.5805   23.3689  -72.6943 H         1 UNK         0.0793 
    117 H117      -77.8233   23.3864  -74.3483 H         1 UNK         0.3047 
    118 H118      -78.9552   23.0227  -77.6491 H         1 UNK         0.0822 
    119 H119      -77.5176   20.9729  -77.6029 H         1 UNK         0.0807 
    120 H120      -79.1948   20.5888  -77.2592 H         1 UNK         0.0807 
    121 H121      -78.0155   20.6507  -75.9478 H         1 UNK         0.0807 
    122 H122      -80.1124   21.9257  -75.3614 H         1 UNK         0.2946 
    123 H123      -82.3721   24.1971  -75.0666 H         1 UNK         0.1144 
    124 H124      -82.7476   22.4535  -73.3143 H         1 UNK         0.0793 
    125 H125      -81.0494   22.0046  -73.3697 H         1 UNK         0.0793 
    126 H126      -82.0850   21.7606  -74.7768 H         1 UNK         0.0793 
    127 H127      -82.1307   25.5217  -73.3269 H         1 UNK         0.2896 
@<TRIPOS>BOND
     1    1    2 1    
     2    1   67 1    
     3    1   68 1    
     4    1   69 1    
     5    2    3 2    
     6    2    4 am   BACKBONE|DICT|INTERRES
     7    4    5 1    
     8    4   70 1    
     9    5    6 1    
    10    5   65 1    
    11    5   71 1    
    12    6    7 1    
    13    6   72 1    
    14    6   73 1    
    15    7    8 1    
    16    8    9 1    
    17    8   74 1    
    18    8   75 1    
    19    9   10 ar   
    20    9   14 ar   
    21   10   11 ar   
    22   10   76 1    
    23   11   12 ar   
    24   11   48 1    
    25   12   13 ar   
    26   12   77 1    
    27   13   14 ar   
    28   13   15 1    
    29   14   78 1    
    30   15   16 1    
    31   15   79 1    
    32   15   80 1    
    33   16   17 1    
    34   17   18 1    
    35   17   81 1    
    36   17   82 1    
    37   18   19 1    
    38   18   22 1    
    39   18   83 1    
    40   19   20 am   BACKBONE|DICT|INTERRES
    41   19   21 2    
    42   20   84 1    
    43   20   85 1    
    44   22   23 am   BACKBONE|DICT|INTERRES
    45   22   86 1    
    46   23   24 2    
    47   23   25 1    
    48   25   26 1    
    49   25   27 1    
    50   25   87 1    
    51   26   88 1    
    52   26   89 1    
    53   26   90 1    
    54   27   28 am   BACKBONE|DICT|INTERRES
    55   27   91 1    
    56   28   29 2    
    57   28   30 1    
    58   30   31 1    
    59   30   32 1    
    60   30   92 1    
    61   31   93 1    
    62   31   94 1    
    63   31   95 1    
    64   32   33 am   BACKBONE|DICT|INTERRES
    65   32   96 1    
    66   33   34 2    
    67   33   35 1    
    68   35   36 1    
    69   35   37 1    
    70   35   97 1    
    71   36   98 1    
    72   36   99 1    
    73   36  100 1    
    74   37   38 am   BACKBONE|DICT|INTERRES
    75   37  101 1    
    76   38   39 2    
    77   38   40 1    
    78   40   41 1    
    79   40   42 1    
    80   40  102 1    
    81   41  103 1    
    82   41  104 1    
    83   41  105 1    
    84   42   43 am   BACKBONE|DICT|INTERRES
    85   42  106 1    
    86   43   44 2    
    87   43   45 1    
    88   45   46 1    
    89   45   49 1    
    90   45  107 1    
    91   46   47 1    
    92   46  108 1    
    93   46  109 1    
    94   47   48 1    
    95   48  110 1    
    96   48  111 1    
    97   49   50 am   BACKBONE|DICT|INTERRES
    98   49  112 1    
    99   50   51 2    
   100   50   52 1    
   101   52   53 1    
   102   52   54 1    
   103   52  113 1    
   104   53  114 1    
   105   53  115 1    
   106   53  116 1    
   107   54   55 am   BACKBONE|DICT|INTERRES
   108   54  117 1    
   109   55   56 2    
   110   55   57 1    
   111   57   58 1    
   112   57   59 1    
   113   57  118 1    
   114   58  119 1    
   115   58  120 1    
   116   58  121 1    
   117   59   60 am   BACKBONE|DICT|INTERRES
   118   59  122 1    
   119   60   61 2    
   120   60   62 1    
   121   62   63 1    
   122   62   64 1    
   123   62  123 1    
   124   63  124 1    
   125   63  125 1    
   126   63  126 1    
   127   64   65 am   BACKBONE|DICT|INTERRES
   128   64  127 1    
   129   65   66 2    
@<TRIPOS>SUBSTRUCTURE
     1 UNK         1 GROUP             0       ****    0 ROOT    
