@<TRIPOS>MOLECULE
3R135
127   129    1
SMALL
USER_CHARGES


@<TRIPOS>ATOM
      1 CA        -79.2598   29.9861  -76.0406 C.3       0 UNK        -0.1998 
      2 C         -79.5444   28.7722  -75.1684 C.2       0 UNK         0.4909 
      3 O         -78.9960   27.7012  -75.4228 O.2       0 UNK        -0.5240 
      4 N         -80.3897   28.9374  -74.1418 N.am      1 UNK        -0.4739 
      5 CA        -80.7547   27.9062  -73.1620 C.3       1 UNK         0.0864 
      6 C6        -81.6192   28.4759  -72.0043 C.3       11 UNK        -0.0881 
      7 S7        -80.9512   29.9893  -71.2293 S.3       11 UNK        -0.2682 
      8 C8        -80.0392   29.3278  -69.7979 C.3       11 UNK         0.0289 
      9 C9        -78.7261   28.6902  -70.2236 C.ar      11 UNK        -0.0687 
     10 C10       -78.5573   27.3034  -70.1720 C.ar      11 UNK        -0.0823 
     11 C11       -77.3642   26.7213  -70.6115 C.ar      11 UNK        -0.0830 
     12 C12       -76.3235   27.5374  -71.0691 C.ar      11 UNK        -0.1021 
     13 C13       -76.4859   28.9231  -71.1303 C.ar      11 UNK        -0.0753 
     14 C14       -77.6850   29.4945  -70.6974 C.ar      11 UNK        -0.0933 
     15 C15       -75.3858   29.8004  -71.7045 C.3       11 UNK         0.0166 
     16 S16       -75.4592   29.8090  -73.5244 S.3       11 UNK        -0.2615 
     17 C17       -74.9979   31.5357  -73.9145 C.3       11 UNK        -0.0865 
     18 CA        -73.4803   31.7587  -74.1565 C.3       10 UNK         0.0862 
     19 C         -72.6642   31.8055  -72.8284 C.2       10 UNK         0.5551 
     20 N         -71.6173   31.0081  -72.6459 N.am      10 UNK        -0.7319 
     21 O         -72.9843   32.5969  -71.9445 O.2       10 UNK        -0.5018 
     22 N         -72.9604   30.8355  -75.1748 N.am      10 UNK        -0.4509 
     23 C         -71.8892   31.0535  -75.9465 C.2       10 UNK         0.4899 
     24 O         -71.2708   32.1191  -75.9751 O.2       10 UNK        -0.4839 
     25 CA        -71.4318   29.8641  -76.8172 C.3       9 UNK         0.0222 
     26 CB        -69.9920   30.0284  -77.3491 C.3       9 UNK        -0.1966 
     27 N         -71.5898   28.5653  -76.1462 N.am      9 UNK        -0.4218 
     28 C         -71.0425   28.1860  -74.9769 C.2       9 UNK         0.5020 
     29 O         -70.3151   28.9143  -74.2998 O.2       9 UNK        -0.5274 
     30 CA        -71.3836   26.7849  -74.4325 C.3       8 UNK         0.0270 
     31 CB        -72.2162   26.9067  -73.1435 C.3       8 UNK        -0.1976 
     32 N         -72.1015   25.9457  -75.3957 N.am      8 UNK        -0.4313 
     33 C         -71.5295   25.3334  -76.4450 C.2       8 UNK         0.5041 
     34 O         -70.3146   25.3303  -76.6466 O.2       8 UNK        -0.5577 
     35 CA        -72.4525   24.6329  -77.4638 C.3       7 UNK         0.0284 
     36 CB        -72.4325   23.1116  -77.2464 C.3       7 UNK        -0.1958 
     37 N         -73.8400   25.1065  -77.4390 N.am      7 UNK        -0.4454 
     38 C         -74.2324   26.3642  -77.6983 C.2       7 UNK         0.5089 
     39 O         -73.4646   27.2513  -78.0720 O.2       7 UNK        -0.5125 
     40 CA        -75.7058   26.7202  -77.4208 C.3       6 UNK         0.0408 
     41 CB        -76.5114   26.7329  -78.7278 C.3       6 UNK        -0.1791 
     42 N         -76.3643   25.8416  -76.4468 N.am      6 UNK        -0.4762 
     43 C         -75.9500   25.6448  -75.1833 C.2       6 UNK         0.5007 
     44 O         -74.9529   26.1889  -74.7095 O.2       6 UNK        -0.5032 
     45 CA        -76.7255   24.6376  -74.3072 C.3       5 UNK         0.0783 
     46 C46       -77.7652   25.3899  -73.4512 C.3       11 UNK        -0.0857 
     47 S47       -78.2675   24.4627  -71.9626 S.3       11 UNK        -0.2512 
     48 C48       -77.2211   25.2068  -70.6631 C.3       11 UNK         0.0225 
     49 N         -77.3746   23.5677  -75.0677 N.am      5 UNK        -0.4615 
     50 C         -76.8158   22.7568  -75.9747 C.2       4 UNK         0.5053 
     51 O         -75.6110   22.7265  -76.2253 O.2       4 UNK        -0.5105 
     52 CA        -77.7888   21.8827  -76.7861 C.3       4 UNK         0.0263 
     53 CB        -77.8756   20.4717  -76.1840 C.3       4 UNK        -0.1981 
     54 N         -79.1389   22.4562  -76.8745 N.am      4 UNK        -0.4224 
     55 C         -79.4575   23.6176  -77.4643 C.2       3 UNK         0.4895 
     56 O         -78.6398   24.3342  -78.0407 O.2       3 UNK        -0.5091 
     57 CA        -80.9234   24.0752  -77.3685 C.3       3 UNK         0.0250 
     58 CB        -81.8824   23.0640  -78.0294 C.3       3 UNK        -0.1996 
     59 N         -81.3609   24.4200  -76.0073 N.am      3 UNK        -0.4254 
     60 C         -81.4541   23.6345  -74.9247 C.2       2 UNK         0.5004 
     61 O         -81.1194   22.4483  -74.9110 O.2       2 UNK        -0.5226 
     62 CA        -82.0216   24.2851  -73.6451 C.3       2 UNK         0.0269 
     63 CB        -82.0204   23.3208  -72.4436 C.3       2 UNK        -0.1926 
     64 N         -81.3223   25.5151  -73.2558 N.am      2 UNK        -0.4687 
     65 C         -81.4973   26.7193  -73.8156 C.2       1 UNK         0.5165 
     66 O         -82.2465   26.9117  -74.7776 O.2       1 UNK        -0.5079 
     67 H67       -78.1971   30.2267  -76.0071 H         1 UNK         0.0900 
     68 H68       -79.8172   30.8636  -75.7140 H         1 UNK         0.0900 
     69 H69       -79.5303   29.7762  -77.0749 H         1 UNK         0.0900 
     70 H70       -80.8132   29.8411  -73.9871 H         1 UNK         0.2959 
     71 H71       -79.8187   27.5305  -72.7440 H         1 UNK         0.1079 
     72 H72       -81.7683   27.7191  -71.2315 H         1 UNK         0.0837 
     73 H73       -82.6179   28.7254  -72.3694 H         1 UNK         0.0837 
     74 H74       -80.6657   28.6207  -69.2523 H         1 UNK         0.0685 
     75 H75       -79.8295   30.1458  -69.1071 H         1 UNK         0.0685 
     76 H76       -79.3651   26.6723  -69.8267 H         1 UNK         0.1434 
     77 H77       -75.4054   27.0938  -71.4311 H         1 UNK         0.1329 
     78 H78       -77.8225   30.5655  -70.7563 H         1 UNK         0.1335 
     79 H79       -75.4775   30.8138  -71.3118 H         1 UNK         0.0680 
     80 H80       -74.4076   29.4363  -71.3873 H         1 UNK         0.0680 
     81 H81       -75.5395   31.8091  -74.8217 H         1 UNK         0.1032 
     82 H82       -75.3811   32.2135  -73.1492 H         1 UNK         0.1032 
     83 H83       -73.3862   32.7662  -74.5679 H         1 UNK         0.0461 
     84 H84       -71.1059   31.0671  -71.7798 H         1 UNK         0.3453 
     85 H85       -71.3075   30.3631  -73.3648 H         1 UNK         0.3453 
     86 H86       -73.4015   29.9273  -75.1993 H         1 UNK         0.2984 
     87 H87       -72.1014   29.8435  -77.6788 H         1 UNK         0.0554 
     88 H88       -69.8998   30.9285  -77.9583 H         1 UNK         0.0847 
     89 H89       -69.7019   29.1841  -77.9754 H         1 UNK         0.0847 
     90 H90       -69.2670   30.1093  -76.5378 H         1 UNK         0.0847 
     91 H91       -72.1879   27.9059  -76.6352 H         1 UNK         0.3141 
     92 H92       -70.4410   26.2936  -74.1819 H         1 UNK         0.0743 
     93 H93       -71.6533   27.4207  -72.3631 H         1 UNK         0.0784 
     94 H94       -73.1324   27.4763  -73.3051 H         1 UNK         0.0784 
     95 H95       -72.4932   25.9280  -72.7515 H         1 UNK         0.0784 
     96 H96       -73.1127   25.9094  -75.2880 H         1 UNK         0.3213 
     97 H97       -72.0530   24.8428  -78.4582 H         1 UNK         0.0855 
     98 H98       -72.8212   22.8405  -76.2639 H         1 UNK         0.0814 
     99 H99       -71.4166   22.7202  -77.3144 H         1 UNK         0.0814 
    100 H100      -73.0297   22.5937  -77.9971 H         1 UNK         0.0814 
    101 H101      -74.5362   24.4451  -77.1125 H         1 UNK         0.3105 
    102 H102      -75.7214   27.7289  -77.0026 H         1 UNK         0.0547 
    103 H103      -76.0724   27.4207  -79.4518 H         1 UNK         0.0837 
    104 H104      -76.5423   25.7460  -79.1911 H         1 UNK         0.0837 
    105 H105      -77.5389   27.0548  -78.5563 H         1 UNK         0.0837 
    106 H106      -77.1890   25.3495  -76.7727 H         1 UNK         0.3020 
    107 H107      -75.9872   24.1726  -73.6503 H         1 UNK         0.1245 
    108 H108      -78.6599   25.5706  -74.0456 H         1 UNK         0.0781 
    109 H109      -77.4161   26.3838  -73.1757 H         1 UNK         0.0781 
    110 H110      -77.4967   24.7823  -69.6967 H         1 UNK         0.0836 
    111 H111      -76.1824   24.9215  -70.8376 H         1 UNK         0.0836 
    112 H112      -78.3707   23.4830  -74.9303 H         1 UNK         0.3022 
    113 H113      -77.3915   21.8047  -77.8002 H         1 UNK         0.0747 
    114 H114      -76.8879   20.0124  -76.1213 H         1 UNK         0.0793 
    115 H115      -78.4978   19.8175  -76.7952 H         1 UNK         0.0793 
    116 H116      -78.2935   20.4881  -75.1764 H         1 UNK         0.0793 
    117 H117      -79.8708   22.0050  -76.3318 H         1 UNK         0.3047 
    118 H118      -80.9922   25.0024  -77.9402 H         1 UNK         0.0822 
    119 H119      -82.8983   23.4569  -78.0738 H         1 UNK         0.0807 
    120 H120      -81.9176   22.1140  -77.4956 H         1 UNK         0.0807 
    121 H121      -81.5753   22.8490  -79.0537 H         1 UNK         0.0807 
    122 H122      -81.6396   25.3888  -75.8765 H         1 UNK         0.2946 
    123 H123      -83.0632   24.5337  -73.8622 H         1 UNK         0.1144 
    124 H124      -82.5936   22.4191  -72.6644 H         1 UNK         0.0793 
    125 H125      -82.4720   23.7797  -71.5640 H         1 UNK         0.0793 
    126 H126      -81.0103   23.0071  -72.1779 H         1 UNK         0.0793 
    127 H127      -80.6633   25.4207  -72.4947 H         1 UNK         0.2896 
@<TRIPOS>BOND
     1    1    2 1    
     2    1   67 1    
     3    1   68 1    
     4    1   69 1    
     5    2    3 2    
     6    2    4 am   BACKBONE|DICT|INTERRES
     7    4    5 1    
     8    4   70 1    
     9    5    6 1    
    10    5   65 1    
    11    5   71 1    
    12    6    7 1    
    13    6   72 1    
    14    6   73 1    
    15    7    8 1    
    16    8    9 1    
    17    8   74 1    
    18    8   75 1    
    19    9   10 ar   
    20    9   14 ar   
    21   10   11 ar   
    22   10   76 1    
    23   11   12 ar   
    24   11   48 1    
    25   12   13 ar   
    26   12   77 1    
    27   13   14 ar   
    28   13   15 1    
    29   14   78 1    
    30   15   16 1    
    31   15   79 1    
    32   15   80 1    
    33   16   17 1    
    34   17   18 1    
    35   17   81 1    
    36   17   82 1    
    37   18   19 1    
    38   18   22 1    
    39   18   83 1    
    40   19   20 am   BACKBONE|DICT|INTERRES
    41   19   21 2    
    42   20   84 1    
    43   20   85 1    
    44   22   23 am   BACKBONE|DICT|INTERRES
    45   22   86 1    
    46   23   24 2    
    47   23   25 1    
    48   25   26 1    
    49   25   27 1    
    50   25   87 1    
    51   26   88 1    
    52   26   89 1    
    53   26   90 1    
    54   27   28 am   BACKBONE|DICT|INTERRES
    55   27   91 1    
    56   28   29 2    
    57   28   30 1    
    58   30   31 1    
    59   30   32 1    
    60   30   92 1    
    61   31   93 1    
    62   31   94 1    
    63   31   95 1    
    64   32   33 am   BACKBONE|DICT|INTERRES
    65   32   96 1    
    66   33   34 2    
    67   33   35 1    
    68   35   36 1    
    69   35   37 1    
    70   35   97 1    
    71   36   98 1    
    72   36   99 1    
    73   36  100 1    
    74   37   38 am   BACKBONE|DICT|INTERRES
    75   37  101 1    
    76   38   39 2    
    77   38   40 1    
    78   40   41 1    
    79   40   42 1    
    80   40  102 1    
    81   41  103 1    
    82   41  104 1    
    83   41  105 1    
    84   42   43 am   BACKBONE|DICT|INTERRES
    85   42  106 1    
    86   43   44 2    
    87   43   45 1    
    88   45   46 1    
    89   45   49 1    
    90   45  107 1    
    91   46   47 1    
    92   46  108 1    
    93   46  109 1    
    94   47   48 1    
    95   48  110 1    
    96   48  111 1    
    97   49   50 am   BACKBONE|DICT|INTERRES
    98   49  112 1    
    99   50   51 2    
   100   50   52 1    
   101   52   53 1    
   102   52   54 1    
   103   52  113 1    
   104   53  114 1    
   105   53  115 1    
   106   53  116 1    
   107   54   55 am   BACKBONE|DICT|INTERRES
   108   54  117 1    
   109   55   56 2    
   110   55   57 1    
   111   57   58 1    
   112   57   59 1    
   113   57  118 1    
   114   58  119 1    
   115   58  120 1    
   116   58  121 1    
   117   59   60 am   BACKBONE|DICT|INTERRES
   118   59  122 1    
   119   60   61 2    
   120   60   62 1    
   121   62   63 1    
   122   62   64 1    
   123   62  123 1    
   124   63  124 1    
   125   63  125 1    
   126   63  126 1    
   127   64   65 am   BACKBONE|DICT|INTERRES
   128   64  127 1    
   129   65   66 2    
@<TRIPOS>SUBSTRUCTURE
     1 UNK         1 GROUP             0       ****    0 ROOT    
