@<TRIPOS>MOLECULE
3R135
127   129    1
SMALL
USER_CHARGES


@<TRIPOS>ATOM
      1 CA        -85.2394   27.2753  -72.1396 C.3       0 UNK        -0.1998 
      2 C         -84.7369   28.0603  -73.3417 C.2       0 UNK         0.4909 
      3 O         -85.5352   28.4662  -74.1866 O.2       0 UNK        -0.5240 
      4 N         -83.4176   28.2749  -73.4274 N.am      1 UNK        -0.4739 
      5 CA        -82.7536   28.9962  -74.5225 C.3       1 UNK         0.0864 
      6 C6        -81.3659   29.5311  -74.0865 C.3       11 UNK        -0.0881 
      7 S7        -80.1782   28.2292  -73.5911 S.3       11 UNK        -0.2682 
      8 C8        -79.5276   28.9113  -72.0367 C.3       11 UNK         0.0289 
      9 C9        -78.1968   28.2743  -71.6653 C.ar      11 UNK        -0.0687 
     10 C10       -78.1608   27.0235  -71.0447 C.ar      11 UNK        -0.0823 
     11 C11       -76.9391   26.4457  -70.6885 C.ar      11 UNK        -0.0830 
     12 C12       -75.7506   27.1348  -70.9420 C.ar      11 UNK        -0.1021 
     13 C13       -75.7659   28.3878  -71.5612 C.ar      11 UNK        -0.0753 
     14 C14       -76.9988   28.9449  -71.9312 C.ar      11 UNK        -0.0933 
     15 C15       -74.4248   29.0694  -71.8384 C.3       11 UNK         0.0166 
     16 S16       -74.5180   30.8451  -72.2628 S.3       11 UNK        -0.2615 
     17 C17       -73.0017   31.0195  -73.2582 C.3       11 UNK        -0.0865 
     18 CA        -73.2256   30.5456  -74.7235 C.3       10 UNK         0.0862 
     19 C         -73.8856   31.5829  -75.6714 C.2       10 UNK         0.5551 
     20 N         -74.2811   31.1482  -76.8611 N.am      10 UNK        -0.7319 
     21 O         -74.0311   32.7607  -75.3525 O.2       10 UNK        -0.5018 
     22 N         -72.0332   29.9343  -75.3209 N.am      10 UNK        -0.4509 
     23 C         -70.8470   30.5257  -75.5129 C.2       10 UNK         0.4899 
     24 O         -70.5977   31.6823  -75.1704 O.2       10 UNK        -0.4839 
     25 CA        -69.7546   29.6893  -76.2153 C.3       9 UNK         0.0222 
     26 CB        -68.3312   30.0782  -75.7620 C.3       9 UNK        -0.1966 
     27 N         -69.9542   28.2360  -76.1168 N.am      9 UNK        -0.4218 
     28 C         -69.9929   27.4798  -75.0095 C.2       9 UNK         0.5020 
     29 O         -69.8291   27.9190  -73.8699 O.2       9 UNK        -0.5274 
     30 CA        -70.3030   25.9846  -75.2260 C.3       8 UNK         0.0270 
     31 CB        -70.3472   25.1884  -73.9080 C.3       8 UNK        -0.1976 
     32 N         -71.5671   25.7900  -75.9451 N.am      8 UNK        -0.4313 
     33 C         -71.7317   25.9266  -77.2702 C.2       8 UNK         0.5041 
     34 O         -70.8166   26.2502  -78.0292 O.2       8 UNK        -0.5577 
     35 CA        -73.1378   25.6994  -77.8539 C.3       7 UNK         0.0284 
     36 CB        -73.2305   24.3069  -78.4968 C.3       7 UNK        -0.1958 
     37 N         -74.2058   25.8573  -76.8635 N.am      7 UNK        -0.4454 
     38 C         -74.5834   27.0389  -76.3504 C.2       7 UNK         0.5089 
     39 O         -74.1134   28.1153  -76.7222 O.2       7 UNK        -0.5125 
     40 CA        -75.6336   27.0314  -75.2218 C.3       6 UNK         0.0408 
     41 CB        -76.9929   27.5029  -75.7535 C.3       6 UNK        -0.1791 
     42 N         -75.7826   25.7287  -74.5631 N.am      6 UNK        -0.4762 
     43 C         -74.8307   25.1555  -73.8076 C.2       6 UNK         0.5007 
     44 O         -73.7606   25.7078  -73.5508 O.2       6 UNK        -0.5032 
     45 CA        -75.0414   23.7002  -73.3322 C.3       5 UNK         0.0783 
     46 C46       -75.2513   23.5842  -71.7978 C.3       11 UNK        -0.0857 
     47 S47       -76.9877   23.7385  -71.2445 S.3       11 UNK        -0.2512 
     48 C48       -76.9081   25.0814  -70.0208 C.3       11 UNK         0.0225 
     49 N         -76.0576   22.9663  -74.0930 N.am      5 UNK        -0.4615 
     50 C         -75.9922   22.6671  -75.3959 C.2       4 UNK         0.5053 
     51 O         -75.0300   22.9480  -76.1092 O.2       4 UNK        -0.5105 
     52 CA        -77.2252   21.9860  -76.0162 C.3       4 UNK         0.0263 
     53 CB        -77.0556   20.4586  -76.0040 C.3       4 UNK        -0.1981 
     54 N         -78.4937   22.3428  -75.3658 N.am      4 UNK        -0.4224 
     55 C         -79.0009   23.5825  -75.3133 C.2       3 UNK         0.4895 
     56 O         -78.4306   24.5751  -75.7698 O.2       3 UNK        -0.5091 
     57 CA        -80.3405   23.7475  -74.5813 C.3       3 UNK         0.0250 
     58 CB        -80.1065   24.1095  -73.1066 C.3       3 UNK        -0.1996 
     59 N         -81.1460   24.7993  -75.1983 N.am      3 UNK        -0.4254 
     60 C         -81.8657   24.6532  -76.3202 C.2       2 UNK         0.5004 
     61 O         -81.9402   23.5932  -76.9443 O.2       2 UNK        -0.5226 
     62 CA        -82.6560   25.8809  -76.8105 C.3       2 UNK         0.0269 
     63 CB        -84.0343   25.4994  -77.3832 C.3       2 UNK        -0.1926 
     64 N         -82.8357   26.8529  -75.7301 N.am      2 UNK        -0.4687 
     65 C         -82.6536   28.1751  -75.8292 C.2       1 UNK         0.5165 
     66 O         -82.3936   28.7502  -76.8875 O.2       1 UNK        -0.5079 
     67 H67       -85.9419   27.8785  -71.5653 H         1 UNK         0.0900 
     68 H68       -84.4265   26.9790  -71.4769 H         1 UNK         0.0900 
     69 H69       -85.7544   26.3732  -72.4690 H         1 UNK         0.0900 
     70 H70       -82.8033   27.9252  -72.7051 H         1 UNK         0.2959 
     71 H71       -83.3711   29.8642  -74.7655 H         1 UNK         0.1079 
     72 H72       -80.9137   30.1178  -74.8887 H         1 UNK         0.0837 
     73 H73       -81.5024   30.2309  -73.2607 H         1 UNK         0.0837 
     74 H74       -80.2551   28.7543  -71.2391 H         1 UNK         0.0685 
     75 H75       -79.4046   29.9911  -72.1348 H         1 UNK         0.0685 
     76 H76       -79.0844   26.4967  -70.8465 H         1 UNK         0.1434 
     77 H77       -74.8045   26.6881  -70.6680 H         1 UNK         0.1329 
     78 H78       -77.0410   29.9031  -72.4281 H         1 UNK         0.1335 
     79 H79       -73.7784   28.9675  -70.9654 H         1 UNK         0.0680 
     80 H80       -73.9343   28.5226  -72.6445 H         1 UNK         0.0680 
     81 H81       -72.6532   32.0531  -73.2216 H         1 UNK         0.1032 
     82 H82       -72.2169   30.4300  -72.7808 H         1 UNK         0.1032 
     83 H83       -73.9386   29.7238  -74.6785 H         1 UNK         0.0461 
     84 H84       -74.7085   31.7868  -77.5126 H         1 UNK         0.3453 
     85 H85       -74.1836   30.1661  -77.0926 H         1 UNK         0.3453 
     86 H86       -72.1711   29.0050  -75.6925 H         1 UNK         0.2984 
     87 H87       -69.8363   29.9278  -77.2765 H         1 UNK         0.0554 
     88 H88       -67.5741   29.4901  -76.2805 H         1 UNK         0.0847 
     89 H89       -68.1941   29.9323  -74.6901 H         1 UNK         0.0847 
     90 H90       -68.1237   31.1276  -75.9749 H         1 UNK         0.0847 
     91 H91       -70.1291   27.7496  -76.9942 H         1 UNK         0.3141 
     92 H92       -69.4908   25.5733  -75.8294 H         1 UNK         0.0743 
     93 H93       -69.3925   25.2496  -73.3841 H         1 UNK         0.0784 
     94 H94       -71.1132   25.5681  -73.2310 H         1 UNK         0.0784 
     95 H95       -70.5503   24.1325  -74.0869 H         1 UNK         0.0784 
     96 H96       -72.3789   25.5919  -75.3732 H         1 UNK         0.3213 
     97 H97       -73.2906   26.4445  -78.6379 H         1 UNK         0.0855 
     98 H98       -73.0266   23.5144  -77.7759 H         1 UNK         0.0814 
     99 H99       -72.5050   24.2032  -79.3048 H         1 UNK         0.0814 
    100 H100      -74.2179   24.1282  -78.9227 H         1 UNK         0.0814 
    101 H101      -74.6368   25.0068  -76.5166 H         1 UNK         0.3105 
    102 H102      -75.3079   27.7469  -74.4661 H         1 UNK         0.0547 
    103 H103      -77.3514   26.8717  -76.5670 H         1 UNK         0.0837 
    104 H104      -77.7446   27.4953  -74.9660 H         1 UNK         0.0837 
    105 H105      -76.9304   28.5231  -76.1341 H         1 UNK         0.0837 
    106 H106      -76.6333   25.2144  -74.7656 H         1 UNK         0.3020 
    107 H107      -74.0907   23.2076  -73.5508 H         1 UNK         0.1245 
    108 H108      -74.6153   24.2887  -71.2588 H         1 UNK         0.0781 
    109 H109      -74.9138   22.5984  -71.4745 H         1 UNK         0.0781 
    110 H110      -76.0196   24.9696  -69.3975 H         1 UNK         0.0836 
    111 H111      -77.7607   24.9886  -69.3463 H         1 UNK         0.0836 
    112 H112      -76.8911   22.7211  -73.5784 H         1 UNK         0.3022 
    113 H113      -77.2854   22.3151  -77.0558 H         1 UNK         0.0747 
    114 H114      -77.8738   19.9635  -76.5276 H         1 UNK         0.0793 
    115 H115      -76.1307   20.1652  -76.5029 H         1 UNK         0.0793 
    116 H116      -77.0171   20.0637  -74.9880 H         1 UNK         0.0793 
    117 H117      -79.0182   21.5841  -74.9536 H         1 UNK         0.3047 
    118 H118      -80.8956   22.8079  -74.6284 H         1 UNK         0.0822 
    119 H119      -79.6026   23.2965  -72.5838 H         1 UNK         0.0807 
    120 H120      -81.0463   24.2909  -72.5849 H         1 UNK         0.0807 
    121 H121      -79.4871   25.0021  -73.0022 H         1 UNK         0.0807 
    122 H122      -81.0584   25.7233  -74.8003 H         1 UNK         0.2946 
    123 H123      -82.0579   26.3220  -77.6114 H         1 UNK         0.1144 
    124 H124      -83.9360   24.8156  -78.2273 H         1 UNK         0.0793 
    125 H125      -84.5698   26.3782  -77.7428 H         1 UNK         0.0793 
    126 H126      -84.6583   25.0099  -76.6346 H         1 UNK         0.0793 
    127 H127      -83.0708   26.4763  -74.8224 H         1 UNK         0.2896 
@<TRIPOS>BOND
     1    1    2 1    
     2    1   67 1    
     3    1   68 1    
     4    1   69 1    
     5    2    3 2    
     6    2    4 am   BACKBONE|DICT|INTERRES
     7    4    5 1    
     8    4   70 1    
     9    5    6 1    
    10    5   65 1    
    11    5   71 1    
    12    6    7 1    
    13    6   72 1    
    14    6   73 1    
    15    7    8 1    
    16    8    9 1    
    17    8   74 1    
    18    8   75 1    
    19    9   10 ar   
    20    9   14 ar   
    21   10   11 ar   
    22   10   76 1    
    23   11   12 ar   
    24   11   48 1    
    25   12   13 ar   
    26   12   77 1    
    27   13   14 ar   
    28   13   15 1    
    29   14   78 1    
    30   15   16 1    
    31   15   79 1    
    32   15   80 1    
    33   16   17 1    
    34   17   18 1    
    35   17   81 1    
    36   17   82 1    
    37   18   19 1    
    38   18   22 1    
    39   18   83 1    
    40   19   20 am   BACKBONE|DICT|INTERRES
    41   19   21 2    
    42   20   84 1    
    43   20   85 1    
    44   22   23 am   BACKBONE|DICT|INTERRES
    45   22   86 1    
    46   23   24 2    
    47   23   25 1    
    48   25   26 1    
    49   25   27 1    
    50   25   87 1    
    51   26   88 1    
    52   26   89 1    
    53   26   90 1    
    54   27   28 am   BACKBONE|DICT|INTERRES
    55   27   91 1    
    56   28   29 2    
    57   28   30 1    
    58   30   31 1    
    59   30   32 1    
    60   30   92 1    
    61   31   93 1    
    62   31   94 1    
    63   31   95 1    
    64   32   33 am   BACKBONE|DICT|INTERRES
    65   32   96 1    
    66   33   34 2    
    67   33   35 1    
    68   35   36 1    
    69   35   37 1    
    70   35   97 1    
    71   36   98 1    
    72   36   99 1    
    73   36  100 1    
    74   37   38 am   BACKBONE|DICT|INTERRES
    75   37  101 1    
    76   38   39 2    
    77   38   40 1    
    78   40   41 1    
    79   40   42 1    
    80   40  102 1    
    81   41  103 1    
    82   41  104 1    
    83   41  105 1    
    84   42   43 am   BACKBONE|DICT|INTERRES
    85   42  106 1    
    86   43   44 2    
    87   43   45 1    
    88   45   46 1    
    89   45   49 1    
    90   45  107 1    
    91   46   47 1    
    92   46  108 1    
    93   46  109 1    
    94   47   48 1    
    95   48  110 1    
    96   48  111 1    
    97   49   50 am   BACKBONE|DICT|INTERRES
    98   49  112 1    
    99   50   51 2    
   100   50   52 1    
   101   52   53 1    
   102   52   54 1    
   103   52  113 1    
   104   53  114 1    
   105   53  115 1    
   106   53  116 1    
   107   54   55 am   BACKBONE|DICT|INTERRES
   108   54  117 1    
   109   55   56 2    
   110   55   57 1    
   111   57   58 1    
   112   57   59 1    
   113   57  118 1    
   114   58  119 1    
   115   58  120 1    
   116   58  121 1    
   117   59   60 am   BACKBONE|DICT|INTERRES
   118   59  122 1    
   119   60   61 2    
   120   60   62 1    
   121   62   63 1    
   122   62   64 1    
   123   62  123 1    
   124   63  124 1    
   125   63  125 1    
   126   63  126 1    
   127   64   65 am   BACKBONE|DICT|INTERRES
   128   64  127 1    
   129   65   66 2    
@<TRIPOS>SUBSTRUCTURE
     1 UNK         1 GROUP             0       ****    0 ROOT    
