@<TRIPOS>MOLECULE
3R135
127   129    1
SMALL
USER_CHARGES


@<TRIPOS>ATOM
      1 CA        -82.1630   26.2193  -69.3441 C.3       0 UNK        -0.1998 
      2 C         -81.7918   26.4780  -70.7959 C.2       0 UNK         0.4909 
      3 O         -80.6691   26.1762  -71.1978 O.2       0 UNK        -0.5240 
      4 N         -82.7319   27.0221  -71.5820 N.am      1 UNK        -0.4739 
      5 CA        -82.6295   27.4204  -72.9988 C.3       1 UNK         0.0864 
      6 C6        -81.5385   28.4851  -73.2781 C.3       11 UNK        -0.0881 
      7 S7        -81.8460   30.0604  -72.4040 S.3       11 UNK        -0.2682 
      8 C8        -80.5443   30.0753  -71.1228 C.3       11 UNK         0.0289 
      9 C9        -79.1410   29.8798  -71.6866 C.ar      11 UNK        -0.0687 
     10 C10       -78.3070   28.8945  -71.1493 C.ar      11 UNK        -0.0823 
     11 C11       -77.0378   28.6687  -71.6885 C.ar      11 UNK        -0.0830 
     12 C12       -76.6081   29.4409  -72.7700 C.ar      11 UNK        -0.1021 
     13 C13       -77.4207   30.4409  -73.3139 C.ar      11 UNK        -0.0753 
     14 C14       -78.6836   30.6599  -72.7548 C.ar      11 UNK        -0.0933 
     15 C15       -76.9852   31.2534  -74.5336 C.3       11 UNK         0.0166 
     16 S16       -75.3354   32.0189  -74.3808 S.3       11 UNK        -0.2615 
     17 C17       -74.2420   30.7196  -75.0610 C.3       11 UNK        -0.0865 
     18 CA        -72.8432   30.6265  -74.3972 C.3       10 UNK         0.0862 
     19 C         -72.8867   30.2028  -72.8932 C.2       10 UNK         0.5551 
     20 N         -72.3933   29.0330  -72.5056 N.am      10 UNK        -0.7319 
     21 O         -73.3407   30.9670  -72.0464 O.2       10 UNK        -0.5018 
     22 N         -71.9580   29.7982  -75.2301 N.am      10 UNK        -0.4509 
     23 C         -70.6210   29.8418  -75.1953 C.2       10 UNK         0.4899 
     24 O         -69.9839   30.6642  -74.5344 O.2       10 UNK        -0.4839 
     25 CA        -69.8742   28.7878  -76.0408 C.3       9 UNK         0.0222 
     26 CB        -68.4025   28.6213  -75.6072 C.3       9 UNK        -0.1966 
     27 N         -70.5326   27.4738  -76.0911 N.am      9 UNK        -0.4218 
     28 C         -70.9044   26.6972  -75.0632 C.2       9 UNK         0.5020 
     29 O         -70.8130   27.0410  -73.8837 O.2       9 UNK        -0.5274 
     30 CA        -71.4642   25.3018  -75.4142 C.3       8 UNK         0.0270 
     31 CB        -71.9058   24.5169  -74.1644 C.3       8 UNK        -0.1976 
     32 N         -72.5746   25.3372  -76.3733 N.am      8 UNK        -0.4313 
     33 C         -72.4673   25.5950  -77.6842 C.2       8 UNK         0.5041 
     34 O         -71.3979   25.8595  -78.2368 O.2       8 UNK        -0.5577 
     35 CA        -73.7551   25.5752  -78.5239 C.3       7 UNK         0.0284 
     36 CB        -74.0320   24.1548  -79.0407 C.3       7 UNK        -0.1958 
     37 N         -74.9333   26.0760  -77.8127 N.am      7 UNK        -0.4454 
     38 C         -75.0974   27.3375  -77.3890 C.2       7 UNK         0.5089 
     39 O         -74.2681   28.2344  -77.5489 O.2       7 UNK        -0.5125 
     40 CA        -76.3979   27.6391  -76.6233 C.3       6 UNK         0.0408 
     41 CB        -77.5901   27.7905  -77.5799 C.3       6 UNK        -0.1791 
     42 N         -76.7006   26.6371  -75.6008 N.am      6 UNK        -0.4762 
     43 C         -75.9103   26.3508  -74.5540 C.2       6 UNK         0.5007 
     44 O         -74.8487   26.9254  -74.3128 O.2       6 UNK        -0.5032 
     45 CA        -76.3685   25.1839  -73.6608 C.3       5 UNK         0.0783 
     46 C46       -77.4794   25.6299  -72.6702 C.3       11 UNK        -0.0857 
     47 S47       -76.8614   25.9463  -70.9838 S.3       11 UNK        -0.2512 
     48 C48       -76.1114   27.6059  -71.1068 C.3       11 UNK         0.0225 
     49 N         -76.7848   24.0432  -74.4830 N.am      5 UNK        -0.4615 
     50 C         -75.9589   23.3119  -75.2456 C.2       4 UNK         0.5053 
     51 O         -74.7441   23.4914  -75.3041 O.2       4 UNK        -0.5105 
     52 CA        -76.5983   22.2215  -76.1222 C.3       4 UNK         0.0263 
     53 CB        -76.7566   20.9154  -75.3282 C.3       4 UNK        -0.1981 
     54 N         -77.8956   22.6225  -76.6699 N.am      4 UNK        -0.4224 
     55 C         -78.0756   23.6302  -77.5364 C.2       3 UNK         0.4895 
     56 O         -77.1561   24.2839  -78.0262 O.2       3 UNK        -0.5091 
     57 CA        -79.5286   24.0088  -77.8696 C.3       3 UNK         0.0250 
     58 CB        -80.0287   23.2113  -79.0842 C.3       3 UNK        -0.1996 
     59 N         -80.4516   23.8247  -76.7430 N.am      3 UNK        -0.4254 
     60 C         -80.3609   24.4718  -75.5726 C.2       2 UNK         0.5004 
     61 O         -79.4742   25.2890  -75.3075 O.2       2 UNK        -0.5226 
     62 CA        -81.3870   24.0809  -74.4980 C.3       2 UNK         0.0269 
     63 CB        -80.8418   22.9370  -73.6272 C.3       2 UNK        -0.1926 
     64 N         -81.7079   25.2189  -73.6392 N.am      2 UNK        -0.4687 
     65 C         -82.4953   26.2416  -73.9883 C.2       1 UNK         0.5165 
     66 O         -83.1196   26.2780  -75.0504 O.2       1 UNK        -0.5079 
     67 H67       -82.0803   25.1561  -69.1203 H         1 UNK         0.0900 
     68 H68       -83.1811   26.5365  -69.1192 H         1 UNK         0.0900 
     69 H69       -81.4854   26.7602  -68.6841 H         1 UNK         0.0900 
     70 H70       -83.6370   27.2083  -71.1725 H         1 UNK         0.2959 
     71 H71       -83.5917   27.8803  -73.2317 H         1 UNK         0.1079 
     72 H72       -80.5500   28.0919  -73.0377 H         1 UNK         0.0837 
     73 H73       -81.5044   28.7224  -74.3434 H         1 UNK         0.0837 
     74 H74       -80.7759   29.3048  -70.3863 H         1 UNK         0.0685 
     75 H75       -80.5818   31.0282  -70.5938 H         1 UNK         0.0685 
     76 H76       -78.6511   28.2851  -70.3245 H         1 UNK         0.1434 
     77 H77       -75.6308   29.2519  -73.1804 H         1 UNK         0.1329 
     78 H78       -79.3319   31.4184  -73.1716 H         1 UNK         0.1335 
     79 H79       -77.0260   30.6276  -75.4243 H         1 UNK         0.0680 
     80 H80       -77.6966   32.0615  -74.7104 H         1 UNK         0.0680 
     81 H81       -74.1242   30.9430  -76.1228 H         1 UNK         0.1032 
     82 H82       -74.7250   29.7461  -75.0318 H         1 UNK         0.1032 
     83 H83       -72.4258   31.6354  -74.4051 H         1 UNK         0.0461 
     84 H84       -71.9474   28.3982  -73.1615 H         1 UNK         0.3453 
     85 H85       -72.4148   28.7967  -71.5276 H         1 UNK         0.3453 
     86 H86       -72.4047   29.0827  -75.7871 H         1 UNK         0.2984 
     87 H87       -69.8765   29.1663  -77.0638 H         1 UNK         0.0554 
     88 H88       -67.8817   27.8996  -76.2365 H         1 UNK         0.0847 
     89 H89       -68.3243   28.2828  -74.5733 H         1 UNK         0.0847 
     90 H90       -67.8594   29.5642  -75.6836 H         1 UNK         0.0847 
     91 H91       -70.6905   27.0850  -77.0201 H         1 UNK         0.3141 
     92 H92       -70.6428   24.7466  -75.8718 H         1 UNK         0.0743 
     93 H93       -72.7518   24.9957  -73.6693 H         1 UNK         0.0784 
     94 H94       -72.1976   23.4981  -74.4191 H         1 UNK         0.0784 
     95 H95       -71.0969   24.4439  -73.4363 H         1 UNK         0.0784 
     96 H96       -73.4896   25.1038  -76.0032 H         1 UNK         0.3213 
     97 H97       -73.5918   26.2251  -79.3862 H         1 UNK         0.0855 
     98 H98       -74.2352   23.4621  -78.2232 H         1 UNK         0.0814 
     99 H99       -73.1766   23.7657  -79.5947 H         1 UNK         0.0814 
    100 H100      -74.8889   24.1376  -79.7145 H         1 UNK         0.0814 
    101 H101      -75.7015   25.4195  -77.6870 H         1 UNK         0.3105 
    102 H102      -76.2698   28.5894  -76.1104 H         1 UNK         0.0547 
    103 H103      -77.4064   28.5843  -78.3049 H         1 UNK         0.0837 
    104 H104      -77.7813   26.8769  -78.1419 H         1 UNK         0.0837 
    105 H105      -78.5015   28.0486  -77.0402 H         1 UNK         0.0837 
    106 H106      -77.5707   26.1232  -75.6979 H         1 UNK         0.3020 
    107 H107      -75.4946   24.8551  -73.0931 H         1 UNK         0.1245 
    108 H108      -78.0514   26.4883  -73.0296 H         1 UNK         0.0781 
    109 H109      -78.2230   24.8402  -72.5597 H         1 UNK         0.0781 
    110 H110      -75.8043   27.9226  -70.1094 H         1 UNK         0.0836 
    111 H111      -75.1934   27.5287  -71.6914 H         1 UNK         0.0836 
    112 H112      -77.7798   23.8879  -74.5557 H         1 UNK         0.3022 
    113 H113      -75.9244   22.0330  -76.9606 H         1 UNK         0.0747 
    114 H114      -77.1336   20.1103  -75.9593 H         1 UNK         0.0793 
    115 H115      -75.7973   20.5865  -74.9256 H         1 UNK         0.0793 
    116 H116      -77.4405   21.0319  -74.4863 H         1 UNK         0.0793 
    117 H117      -78.7092   22.1305  -76.3314 H         1 UNK         0.3047 
    118 H118      -79.5367   25.0691  -78.1305 H         1 UNK         0.0822 
    119 H119      -81.0233   23.5363  -79.3906 H         1 UNK         0.0807 
    120 H120      -80.0728   22.1412  -78.8775 H         1 UNK         0.0807 
    121 H121      -79.3671   23.3507  -79.9405 H         1 UNK         0.0807 
    122 H122      -81.2016   23.1617  -76.8790 H         1 UNK         0.2946 
    123 H123      -82.3040   23.7454  -74.9880 H         1 UNK         0.1144 
    124 H124      -81.5722   22.6296  -72.8785 H         1 UNK         0.0793 
    125 H125      -79.9305   23.2249  -73.1026 H         1 UNK         0.0793 
    126 H126      -80.6097   22.0580  -74.2298 H         1 UNK         0.0793 
    127 H127      -81.1848   25.3174  -72.7722 H         1 UNK         0.2896 
@<TRIPOS>BOND
     1    1    2 1    
     2    1   67 1    
     3    1   68 1    
     4    1   69 1    
     5    2    3 2    
     6    2    4 am   BACKBONE|DICT|INTERRES
     7    4    5 1    
     8    4   70 1    
     9    5    6 1    
    10    5   65 1    
    11    5   71 1    
    12    6    7 1    
    13    6   72 1    
    14    6   73 1    
    15    7    8 1    
    16    8    9 1    
    17    8   74 1    
    18    8   75 1    
    19    9   10 ar   
    20    9   14 ar   
    21   10   11 ar   
    22   10   76 1    
    23   11   12 ar   
    24   11   48 1    
    25   12   13 ar   
    26   12   77 1    
    27   13   14 ar   
    28   13   15 1    
    29   14   78 1    
    30   15   16 1    
    31   15   79 1    
    32   15   80 1    
    33   16   17 1    
    34   17   18 1    
    35   17   81 1    
    36   17   82 1    
    37   18   19 1    
    38   18   22 1    
    39   18   83 1    
    40   19   20 am   BACKBONE|DICT|INTERRES
    41   19   21 2    
    42   20   84 1    
    43   20   85 1    
    44   22   23 am   BACKBONE|DICT|INTERRES
    45   22   86 1    
    46   23   24 2    
    47   23   25 1    
    48   25   26 1    
    49   25   27 1    
    50   25   87 1    
    51   26   88 1    
    52   26   89 1    
    53   26   90 1    
    54   27   28 am   BACKBONE|DICT|INTERRES
    55   27   91 1    
    56   28   29 2    
    57   28   30 1    
    58   30   31 1    
    59   30   32 1    
    60   30   92 1    
    61   31   93 1    
    62   31   94 1    
    63   31   95 1    
    64   32   33 am   BACKBONE|DICT|INTERRES
    65   32   96 1    
    66   33   34 2    
    67   33   35 1    
    68   35   36 1    
    69   35   37 1    
    70   35   97 1    
    71   36   98 1    
    72   36   99 1    
    73   36  100 1    
    74   37   38 am   BACKBONE|DICT|INTERRES
    75   37  101 1    
    76   38   39 2    
    77   38   40 1    
    78   40   41 1    
    79   40   42 1    
    80   40  102 1    
    81   41  103 1    
    82   41  104 1    
    83   41  105 1    
    84   42   43 am   BACKBONE|DICT|INTERRES
    85   42  106 1    
    86   43   44 2    
    87   43   45 1    
    88   45   46 1    
    89   45   49 1    
    90   45  107 1    
    91   46   47 1    
    92   46  108 1    
    93   46  109 1    
    94   47   48 1    
    95   48  110 1    
    96   48  111 1    
    97   49   50 am   BACKBONE|DICT|INTERRES
    98   49  112 1    
    99   50   51 2    
   100   50   52 1    
   101   52   53 1    
   102   52   54 1    
   103   52  113 1    
   104   53  114 1    
   105   53  115 1    
   106   53  116 1    
   107   54   55 am   BACKBONE|DICT|INTERRES
   108   54  117 1    
   109   55   56 2    
   110   55   57 1    
   111   57   58 1    
   112   57   59 1    
   113   57  118 1    
   114   58  119 1    
   115   58  120 1    
   116   58  121 1    
   117   59   60 am   BACKBONE|DICT|INTERRES
   118   59  122 1    
   119   60   61 2    
   120   60   62 1    
   121   62   63 1    
   122   62   64 1    
   123   62  123 1    
   124   63  124 1    
   125   63  125 1    
   126   63  126 1    
   127   64   65 am   BACKBONE|DICT|INTERRES
   128   64  127 1    
   129   65   66 2    
@<TRIPOS>SUBSTRUCTURE
     1 UNK         1 GROUP             0       ****    0 ROOT    
