@<TRIPOS>MOLECULE
3R135
127   129    1
SMALL
USER_CHARGES


@<TRIPOS>ATOM
      1 CA        -82.0976   30.8810  -75.9023 C.3       0 UNK        -0.1998 
      2 C         -81.4398   29.7798  -75.0843 C.2       0 UNK         0.4909 
      3 O         -80.3348   29.3508  -75.4151 O.2       0 UNK        -0.5240 
      4 N         -82.1065   29.3293  -74.0148 N.am      1 UNK        -0.4739 
      5 CA        -81.6434   28.2472  -73.1383 C.3       1 UNK         0.0864 
      6 C6        -82.3184   28.2987  -71.7423 C.3       11 UNK        -0.0881 
      7 S7        -82.1010   29.9167  -70.9185 S.3       11 UNK        -0.2682 
      8 C8        -80.7362   29.5957  -69.7494 C.3       11 UNK         0.0289 
      9 C9        -79.4706   29.0855  -70.4297 C.ar      11 UNK        -0.0687 
     10 C10       -78.8743   27.8980  -69.9948 C.ar      11 UNK        -0.0823 
     11 C11       -77.7237   27.3989  -70.6140 C.ar      11 UNK        -0.0830 
     12 C12       -77.1834   28.1015  -71.7004 C.ar      11 UNK        -0.1021 
     13 C13       -77.7708   29.2886  -72.1479 C.ar      11 UNK        -0.0753 
     14 C14       -78.8964   29.7911  -71.4916 C.ar      11 UNK        -0.0933 
     15 C15       -77.2192   29.9921  -73.3768 C.3       11 UNK         0.0166 
     16 S16       -75.6110   30.7784  -73.0516 S.3       11 UNK        -0.2615 
     17 C17       -75.0513   31.1242  -74.7596 C.3       11 UNK        -0.0865 
     18 CA        -73.5134   31.0145  -74.9583 C.3       10 UNK         0.0862 
     19 C         -72.7813   32.3167  -74.5147 C.2       10 UNK         0.5551 
     20 N         -71.8875   32.2815  -73.5332 N.am      10 UNK        -0.7319 
     21 O         -73.0212   33.3784  -75.0849 O.2       10 UNK        -0.5018 
     22 N         -72.9653   29.7709  -74.3883 N.am      10 UNK        -0.4509 
     23 C         -71.8048   29.2052  -74.7458 C.2       10 UNK         0.4899 
     24 O         -71.1156   29.5930  -75.6898 O.2       10 UNK        -0.4839 
     25 CA        -71.2959   28.0390  -73.8852 C.3       9 UNK         0.0222 
     26 CB        -71.9074   27.9952  -72.4680 C.3       9 UNK        -0.1966 
     27 N         -71.5726   26.7768  -74.5637 N.am      9 UNK        -0.4218 
     28 C         -70.6556   25.9435  -75.0696 C.2       9 UNK         0.5020 
     29 O         -69.4424   26.1593  -75.0571 O.2       9 UNK        -0.5274 
     30 CA        -71.1742   24.6240  -75.6675 C.3       8 UNK         0.0270 
     31 CB        -71.5149   23.6229  -74.5510 C.3       8 UNK        -0.1976 
     32 N         -72.3367   24.7994  -76.5408 N.am      8 UNK        -0.4313 
     33 C         -72.2922   25.3599  -77.7579 C.2       8 UNK         0.5041 
     34 O         -71.2587   25.7728  -78.2858 O.2       8 UNK        -0.5577 
     35 CA        -73.6222   25.4745  -78.5232 C.3       7 UNK         0.0284 
     36 CB        -73.9805   24.1420  -79.2009 C.3       7 UNK        -0.1958 
     37 N         -74.7268   25.9072  -77.6662 N.am      7 UNK        -0.4454 
     38 C         -74.8302   27.1323  -77.1328 C.2       7 UNK         0.5089 
     39 O         -74.0600   28.0583  -77.3855 O.2       7 UNK        -0.5125 
     40 CA        -75.9681   27.3622  -76.1253 C.3       6 UNK         0.0408 
     41 CB        -77.2603   27.7830  -76.8404 C.3       6 UNK        -0.1791 
     42 N         -76.2339   26.2061  -75.2688 N.am      6 UNK        -0.4762 
     43 C         -75.3590   25.6955  -74.3918 C.2       6 UNK         0.5007 
     44 O         -74.2405   26.1662  -74.1978 O.2       6 UNK        -0.5032 
     45 CA        -75.7733   24.4069  -73.6575 C.3       5 UNK         0.0783 
     46 C46       -76.6816   24.6882  -72.4382 C.3       11 UNK        -0.0857 
     47 S47       -75.7539   25.3681  -71.0257 S.3       11 UNK        -0.2512 
     48 C48       -77.1071   26.1138  -70.0522 C.3       11 UNK         0.0225 
     49 N         -76.3880   23.4525  -74.5805 N.am      5 UNK        -0.4615 
     50 C         -75.7347   22.8234  -75.5661 C.2       4 UNK         0.5053 
     51 O         -74.5294   22.9515  -75.7792 O.2       4 UNK        -0.5105 
     52 CA        -76.5800   21.9348  -76.4931 C.3       4 UNK         0.0263 
     53 CB        -76.7652   20.5369  -75.8822 C.3       4 UNK        -0.1981 
     54 N         -77.8900   22.5212  -76.7912 N.am      4 UNK        -0.4224 
     55 C         -78.0649   23.6423  -77.5054 C.2       3 UNK         0.4895 
     56 O         -77.1444   24.2769  -78.0199 O.2       3 UNK        -0.5091 
     57 CA        -79.5048   24.1677  -77.6310 C.3       3 UNK         0.0250 
     58 CB        -80.2495   23.4402  -78.7618 C.3       3 UNK        -0.1996 
     59 N         -80.2865   24.0859  -76.3898 N.am      3 UNK        -0.4254 
     60 C         -79.9557   24.6940  -75.2422 C.2       2 UNK         0.5004 
     61 O         -78.8987   25.3030  -75.0687 O.2       2 UNK        -0.5226 
     62 CA        -80.9482   24.5881  -74.0765 C.3       2 UNK         0.0269 
     63 CB        -80.4861   23.5275  -73.0646 C.3       2 UNK        -0.1926 
     64 N         -81.0357   25.8878  -73.4092 N.am      2 UNK        -0.4687 
     65 C         -81.8475   26.8742  -73.8094 C.2       1 UNK         0.5165 
     66 O         -82.7334   26.7242  -74.6564 O.2       1 UNK        -0.5079 
     67 H67       -83.0601   31.1786  -75.4865 H         1 UNK         0.0900 
     68 H68       -82.2597   30.5415  -76.9250 H         1 UNK         0.0900 
     69 H69       -81.4546   31.7602  -75.9325 H         1 UNK         0.0900 
     70 H70       -83.0160   29.7083  -73.7947 H         1 UNK         0.2959 
     71 H71       -80.5679   28.3686  -73.0059 H         1 UNK         0.1079 
     72 H72       -83.3900   28.1095  -71.8311 H         1 UNK         0.0837 
     73 H73       -81.9269   27.5130  -71.0932 H         1 UNK         0.0837 
     74 H74       -80.5022   30.5205  -69.2206 H         1 UNK         0.0685 
     75 H75       -81.0851   28.8894  -68.9944 H         1 UNK         0.0685 
     76 H76       -79.3057   27.3587  -69.1621 H         1 UNK         0.1434 
     77 H77       -76.3030   27.7390  -72.2114 H         1 UNK         0.1329 
     78 H78       -79.3568   30.7072  -71.8358 H         1 UNK         0.1335 
     79 H79       -77.9186   30.7465  -73.7409 H         1 UNK         0.0680 
     80 H80       -77.1267   29.2567  -74.1735 H         1 UNK         0.0680 
     81 H81       -75.4205   32.1081  -75.0565 H         1 UNK         0.1032 
     82 H82       -75.5378   30.4304  -75.4441 H         1 UNK         0.1032 
     83 H83       -73.3496   30.9592  -76.0365 H         1 UNK         0.0461 
     84 H84       -71.4183   33.1310  -73.2614 H         1 UNK         0.3453 
     85 H85       -71.6872   31.4182  -73.0563 H         1 UNK         0.3453 
     86 H86       -73.4733   29.3961  -73.6004 H         1 UNK         0.2984 
     87 H87       -70.2197   28.1826  -73.7701 H         1 UNK         0.0554 
     88 H88       -71.4387   27.2142  -71.8692 H         1 UNK         0.0847 
     89 H89       -72.9790   27.7925  -72.4797 H         1 UNK         0.0847 
     90 H90       -71.7512   28.9367  -71.9398 H         1 UNK         0.0847 
     91 H91       -72.5567   26.5102  -74.6072 H         1 UNK         0.3141 
     92 H92       -70.3683   24.1941  -76.2664 H         1 UNK         0.0743 
     93 H93       -72.3391   23.9749  -73.9296 H         1 UNK         0.0784 
     94 H94       -71.7974   22.6532  -74.9615 H         1 UNK         0.0784 
     95 H95       -70.6577   23.4606  -73.8963 H         1 UNK         0.0784 
     96 H96       -73.2190   24.4204  -76.2095 H         1 UNK         0.3213 
     97 H97       -73.4906   26.2258  -79.3052 H         1 UNK         0.0855 
     98 H98       -74.1459   23.3476  -78.4728 H         1 UNK         0.0814 
     99 H99       -73.1794   23.8147  -79.8649 H         1 UNK         0.0814 
    100 H100      -74.8841   24.2349  -79.8037 H         1 UNK         0.0814 
    101 H101      -75.4626   25.2321  -77.4802 H         1 UNK         0.3105 
    102 H102      -75.6487   28.1726  -75.4717 H         1 UNK         0.0547 
    103 H103      -77.1052   28.6887  -77.4277 H         1 UNK         0.0837 
    104 H104      -77.6142   27.0076  -77.5202 H         1 UNK         0.0837 
    105 H105      -78.0598   27.9891  -76.1286 H         1 UNK         0.0837 
    106 H106      -77.1614   25.7875  -75.3327 H         1 UNK         0.3020 
    107 H107      -74.8550   23.9402  -73.2924 H         1 UNK         0.1245 
    108 H108      -77.1389   23.7597  -72.0935 H         1 UNK         0.0781 
    109 H109      -77.5054   25.3530  -72.7047 H         1 UNK         0.0781 
    110 H110      -76.7191   26.3327  -69.0565 H         1 UNK         0.0836 
    111 H111      -77.8887   25.3643  -69.9175 H         1 UNK         0.0836 
    112 H112      -77.3891   23.3456  -74.5181 H         1 UNK         0.3022 
    113 H113      -76.0361   21.8270  -77.4341 H         1 UNK         0.0747 
    114 H114      -77.2948   19.8727  -76.5655 H         1 UNK         0.0793 
    115 H115      -75.8000   20.0753  -75.6680 H         1 UNK         0.0793 
    116 H116      -77.3242   20.5724  -74.9463 H         1 UNK         0.0793 
    117 H117      -78.7027   22.0602  -76.4087 H         1 UNK         0.3047 
    118 H118      -79.4370   25.2245  -77.8982 H         1 UNK         0.0822 
    119 H119      -81.2293   23.8833  -78.9413 H         1 UNK         0.0807 
    120 H120      -80.3944   22.3825  -78.5385 H         1 UNK         0.0807 
    121 H121      -79.6930   23.5023  -79.6983 H         1 UNK         0.0807 
    122 H122      -81.1661   23.5922  -76.4447 H         1 UNK         0.2946 
    123 H123      -81.9299   24.2998  -74.4599 H         1 UNK         0.1144 
    124 H124      -81.1987   23.4286  -72.2454 H         1 UNK         0.0793 
    125 H125      -79.5163   23.7724  -72.6327 H         1 UNK         0.0793 
    126 H126      -80.3978   22.5476  -73.5355 H         1 UNK         0.0793 
    127 H127      -80.3056   26.0952  -72.7430 H         1 UNK         0.2896 
@<TRIPOS>BOND
     1    1    2 1    
     2    1   67 1    
     3    1   68 1    
     4    1   69 1    
     5    2    3 2    
     6    2    4 am   BACKBONE|DICT|INTERRES
     7    4    5 1    
     8    4   70 1    
     9    5    6 1    
    10    5   65 1    
    11    5   71 1    
    12    6    7 1    
    13    6   72 1    
    14    6   73 1    
    15    7    8 1    
    16    8    9 1    
    17    8   74 1    
    18    8   75 1    
    19    9   10 ar   
    20    9   14 ar   
    21   10   11 ar   
    22   10   76 1    
    23   11   12 ar   
    24   11   48 1    
    25   12   13 ar   
    26   12   77 1    
    27   13   14 ar   
    28   13   15 1    
    29   14   78 1    
    30   15   16 1    
    31   15   79 1    
    32   15   80 1    
    33   16   17 1    
    34   17   18 1    
    35   17   81 1    
    36   17   82 1    
    37   18   19 1    
    38   18   22 1    
    39   18   83 1    
    40   19   20 am   BACKBONE|DICT|INTERRES
    41   19   21 2    
    42   20   84 1    
    43   20   85 1    
    44   22   23 am   BACKBONE|DICT|INTERRES
    45   22   86 1    
    46   23   24 2    
    47   23   25 1    
    48   25   26 1    
    49   25   27 1    
    50   25   87 1    
    51   26   88 1    
    52   26   89 1    
    53   26   90 1    
    54   27   28 am   BACKBONE|DICT|INTERRES
    55   27   91 1    
    56   28   29 2    
    57   28   30 1    
    58   30   31 1    
    59   30   32 1    
    60   30   92 1    
    61   31   93 1    
    62   31   94 1    
    63   31   95 1    
    64   32   33 am   BACKBONE|DICT|INTERRES
    65   32   96 1    
    66   33   34 2    
    67   33   35 1    
    68   35   36 1    
    69   35   37 1    
    70   35   97 1    
    71   36   98 1    
    72   36   99 1    
    73   36  100 1    
    74   37   38 am   BACKBONE|DICT|INTERRES
    75   37  101 1    
    76   38   39 2    
    77   38   40 1    
    78   40   41 1    
    79   40   42 1    
    80   40  102 1    
    81   41  103 1    
    82   41  104 1    
    83   41  105 1    
    84   42   43 am   BACKBONE|DICT|INTERRES
    85   42  106 1    
    86   43   44 2    
    87   43   45 1    
    88   45   46 1    
    89   45   49 1    
    90   45  107 1    
    91   46   47 1    
    92   46  108 1    
    93   46  109 1    
    94   47   48 1    
    95   48  110 1    
    96   48  111 1    
    97   49   50 am   BACKBONE|DICT|INTERRES
    98   49  112 1    
    99   50   51 2    
   100   50   52 1    
   101   52   53 1    
   102   52   54 1    
   103   52  113 1    
   104   53  114 1    
   105   53  115 1    
   106   53  116 1    
   107   54   55 am   BACKBONE|DICT|INTERRES
   108   54  117 1    
   109   55   56 2    
   110   55   57 1    
   111   57   58 1    
   112   57   59 1    
   113   57  118 1    
   114   58  119 1    
   115   58  120 1    
   116   58  121 1    
   117   59   60 am   BACKBONE|DICT|INTERRES
   118   59  122 1    
   119   60   61 2    
   120   60   62 1    
   121   62   63 1    
   122   62   64 1    
   123   62  123 1    
   124   63  124 1    
   125   63  125 1    
   126   63  126 1    
   127   64   65 am   BACKBONE|DICT|INTERRES
   128   64  127 1    
   129   65   66 2    
@<TRIPOS>SUBSTRUCTURE
     1 UNK         1 GROUP             0       ****    0 ROOT    
