@<TRIPOS>MOLECULE
3R135
127   129    1
SMALL
USER_CHARGES


@<TRIPOS>ATOM
      1 CA        -86.1002   27.7009  -73.2317 C.3       0 UNK        -0.1998 
      2 C         -84.6579   27.3101  -73.5209 C.2       0 UNK         0.4909 
      3 O         -84.1558   26.3670  -72.9087 O.2       0 UNK        -0.5240 
      4 N         -84.0070   28.0397  -74.4400 N.am      1 UNK        -0.4739 
      5 CA        -82.6320   27.8647  -74.9388 C.3       1 UNK         0.0864 
      6 C6        -81.5448   27.8438  -73.8249 C.3       11 UNK        -0.0881 
      7 S7        -81.5005   29.4011  -72.8713 S.3       11 UNK        -0.2682 
      8 C8        -79.8794   30.0978  -73.3486 C.3       11 UNK         0.0289 
      9 C9        -78.7106   29.6854  -72.4491 C.ar      11 UNK        -0.0687 
     10 C10       -78.6461   28.4327  -71.8233 C.ar      11 UNK        -0.0823 
     11 C11       -77.5719   28.1030  -70.9895 C.ar      11 UNK        -0.0830 
     12 C12       -76.5456   29.0292  -70.7892 C.ar      11 UNK        -0.1021 
     13 C13       -76.5880   30.2770  -71.4154 C.ar      11 UNK        -0.0753 
     14 C14       -77.6669   30.5946  -72.2456 C.ar      11 UNK        -0.0933 
     15 C15       -75.4883   31.2993  -71.1709 C.3       11 UNK         0.0166 
     16 S16       -74.1809   31.1981  -72.4293 S.3       11 UNK        -0.2615 
     17 C17       -73.2560   29.7283  -71.8652 C.3       11 UNK        -0.0865 
     18 CA        -71.9061   29.5643  -72.6135 C.3       10 UNK         0.0862 
     19 C         -71.0213   28.4384  -72.0016 C.2       10 UNK         0.5551 
     20 N         -70.3271   27.6288  -72.7942 N.am      10 UNK        -0.7319 
     21 O         -70.9449   28.3046  -70.7826 O.2       10 UNK        -0.5018 
     22 N         -72.1228   29.3859  -74.0554 N.am      10 UNK        -0.4509 
     23 C         -71.5210   30.0764  -75.0287 C.2       10 UNK         0.4899 
     24 O         -70.7288   30.9996  -74.8306 O.2       10 UNK        -0.4839 
     25 CA        -71.8613   29.6458  -76.4690 C.3       9 UNK         0.0222 
     26 CB        -70.9052   30.2473  -77.5209 C.3       9 UNK        -0.1966 
     27 N         -71.9559   28.1885  -76.6286 N.am      9 UNK        -0.4218 
     28 C         -70.9970   27.2801  -76.3829 C.2       9 UNK         0.5020 
     29 O         -69.8814   27.5758  -75.9515 O.2       9 UNK        -0.5274 
     30 CA        -71.3184   25.7890  -76.6174 C.3       8 UNK         0.0270 
     31 CB        -71.0092   24.9629  -75.3560 C.3       8 UNK        -0.1976 
     32 N         -72.7031   25.5324  -77.0206 N.am      8 UNK        -0.4313 
     33 C         -73.2081   25.7231  -78.2465 C.2       8 UNK         0.5041 
     34 O         -72.5359   26.0707  -79.2177 O.2       8 UNK        -0.5577 
     35 CA        -74.7313   25.5548  -78.3995 C.3       7 UNK         0.0284 
     36 CB        -75.0945   24.0870  -78.6714 C.3       7 UNK        -0.1958 
     37 N         -75.4808   26.0415  -77.2354 N.am      7 UNK        -0.4454 
     38 C         -75.4846   27.3116  -76.8036 C.2       7 UNK         0.5089 
     39 O         -74.8818   28.2270  -77.3630 O.2       7 UNK        -0.5125 
     40 CA        -76.2401   27.5969  -75.4969 C.3       6 UNK         0.0408 
     41 CB        -77.7482   27.7342  -75.7495 C.3       6 UNK        -0.1791 
     42 N         -75.9976   26.5604  -74.4934 N.am      6 UNK        -0.4762 
     43 C         -74.8320   26.3853  -73.8561 C.2       6 UNK         0.5007 
     44 O         -73.8436   27.0974  -74.0351 O.2       6 UNK        -0.5032 
     45 CA        -74.7363   25.1833  -72.8948 C.3       5 UNK         0.0783 
     46 C46       -75.3002   25.5162  -71.4877 C.3       11 UNK        -0.0857 
     47 S47       -77.1225   25.3894  -71.3737 S.3       11 UNK        -0.2512 
     48 C48       -77.5502   26.7651  -70.2657 C.3       11 UNK         0.0225 
     49 N         -75.3371   23.9672  -73.4538 N.am      5 UNK        -0.4615 
     50 C         -74.9310   23.3346  -74.5607 C.2       4 UNK         0.5053 
     51 O         -73.9466   23.6688  -75.2157 O.2       4 UNK        -0.5105 
     52 CA        -75.8009   22.1617  -75.0486 C.3       4 UNK         0.0263 
     53 CB        -75.3779   20.8562  -74.3572 C.3       4 UNK        -0.1981 
     54 N         -77.2436   22.3708  -74.8665 N.am      4 UNK        -0.4224 
     55 C         -77.9384   23.4028  -75.3659 C.2       3 UNK         0.4895 
     56 O         -77.4268   24.3133  -76.0227 O.2       3 UNK        -0.5091 
     57 CA        -79.4400   23.4424  -75.0335 C.3       3 UNK         0.0250 
     58 CB        -79.6668   23.7295  -73.5394 C.3       3 UNK        -0.1996 
     59 N         -80.1203   24.4841  -75.7997 N.am      3 UNK        -0.4254 
     60 C         -80.5143   24.3891  -77.0754 C.2       2 UNK         0.5004 
     61 O         -80.4423   23.3513  -77.7362 O.2       2 UNK        -0.5226 
     62 CA        -81.0564   25.6808  -77.7263 C.3       2 UNK         0.0269 
     63 CB        -82.1641   25.4021  -78.7657 C.3       2 UNK        -0.1926 
     64 N         -81.4737   26.7144  -76.7601 N.am      2 UNK        -0.4687 
     65 C         -82.4917   26.6499  -75.8850 C.2       1 UNK         0.5165 
     66 O         -83.2632   25.6917  -75.8081 O.2       1 UNK        -0.5079 
     67 H67       -86.7656   26.8664  -73.4515 H         1 UNK         0.0900 
     68 H68       -86.4206   28.5557  -73.8272 H         1 UNK         0.0900 
     69 H69       -86.2143   27.9600  -72.1793 H         1 UNK         0.0900 
     70 H70       -84.5155   28.7860  -74.8934 H         1 UNK         0.2959 
     71 H71       -82.4481   28.7453  -75.5572 H         1 UNK         0.1079 
     72 H72       -81.7044   27.0172  -73.1316 H         1 UNK         0.0837 
     73 H73       -80.5581   27.6694  -74.2533 H         1 UNK         0.0837 
     74 H74       -79.9843   31.1836  -73.3203 H         1 UNK         0.0685 
     75 H75       -79.6521   29.8491  -74.3852 H         1 UNK         0.0685 
     76 H76       -79.4369   27.7107  -71.9650 H         1 UNK         0.1434 
     77 H77       -75.7197   28.7858  -70.1350 H         1 UNK         0.1329 
     78 H78       -77.6975   31.5632  -72.7259 H         1 UNK         0.1335 
     79 H79       -75.9123   32.3044  -71.1897 H         1 UNK         0.0680 
     80 H80       -75.0585   31.1731  -70.1759 H         1 UNK         0.0680 
     81 H81       -73.0879   29.8269  -70.7913 H         1 UNK         0.1032 
     82 H82       -73.8791   28.8435  -72.0000 H         1 UNK         0.1032 
     83 H83       -71.3381   30.4808  -72.4461 H         1 UNK         0.0461 
     84 H84       -70.3361   27.7550  -73.7976 H         1 UNK         0.3453 
     85 H85       -69.7515   26.9128  -72.3814 H         1 UNK         0.3453 
     86 H86       -72.7386   28.6128  -74.2961 H         1 UNK         0.2984 
     87 H87       -72.8591   30.0373  -76.6711 H         1 UNK         0.0554 
     88 H88       -71.1864   29.9465  -78.5301 H         1 UNK         0.0847 
     89 H89       -69.8729   29.9379  -77.3537 H         1 UNK         0.0847 
     90 H90       -70.9264   31.3374  -77.4915 H         1 UNK         0.0847 
     91 H91       -72.8597   27.8560  -76.9466 H         1 UNK         0.3141 
     92 H92       -70.6590   25.4444  -77.4164 H         1 UNK         0.0743 
     93 H93       -69.9660   25.0707  -75.0562 H         1 UNK         0.0784 
     94 H94       -71.6258   25.2748  -74.5120 H         1 UNK         0.0784 
     95 H95       -71.1851   23.9004  -75.5248 H         1 UNK         0.0784 
     96 H96       -73.3154   25.1560  -76.3010 H         1 UNK         0.3213 
     97 H97       -75.0444   26.1489  -79.2606 H         1 UNK         0.0855 
     98 H98       -74.6149   23.7310  -79.5841 H         1 UNK         0.0814 
     99 H99       -76.1700   23.9587  -78.7969 H         1 UNK         0.0814 
    100 H100      -74.7713   23.4356  -77.8600 H         1 UNK         0.0814 
    101 H101      -76.0469   25.3622  -76.7298 H         1 UNK         0.3105 
    102 H102      -75.8778   28.5458  -75.0943 H         1 UNK         0.0547 
    103 H103      -78.1691   26.8428  -76.2141 H         1 UNK         0.0837 
    104 H104      -78.2796   27.9116  -74.8168 H         1 UNK         0.0837 
    105 H105      -77.9550   28.5764  -76.4108 H         1 UNK         0.0837 
    106 H106      -76.7386   25.8930  -74.3330 H         1 UNK         0.3020 
    107 H107      -73.6687   24.9818  -72.7787 H         1 UNK         0.1245 
    108 H108      -74.9692   26.5031  -71.1591 H         1 UNK         0.0781 
    109 H109      -74.8849   24.8154  -70.7620 H         1 UNK         0.0781 
    110 H110      -76.8590   26.7844  -69.4215 H         1 UNK         0.0836 
    111 H111      -78.5370   26.5751  -69.8410 H         1 UNK         0.0836 
    112 H112      -76.1656   23.6353  -72.9818 H         1 UNK         0.3022 
    113 H113      -75.6245   22.0488  -76.1196 H         1 UNK         0.0747 
    114 H114      -75.9099   19.9980  -74.7684 H         1 UNK         0.0793 
    115 H115      -74.3118   20.6697  -74.4957 H         1 UNK         0.0793 
    116 H116      -75.5665   20.8866  -73.2833 H         1 UNK         0.0793 
    117 H117      -77.7360   21.6685  -74.3330 H         1 UNK         0.3047 
    118 H118      -79.8736   22.4715  -75.2826 H         1 UNK         0.0822 
    119 H119      -79.1751   22.9905  -72.9057 H         1 UNK         0.0807 
    120 H120      -80.7284   23.7057  -73.2919 H         1 UNK         0.0807 
    121 H121      -79.2849   24.7106  -73.2564 H         1 UNK         0.0807 
    122 H122      -80.2000   25.3842  -75.3551 H         1 UNK         0.2946 
    123 H123      -80.2079   26.1029  -78.2680 H         1 UNK         0.1144 
    124 H124      -81.7928   24.7685  -79.5723 H         1 UNK         0.0793 
    125 H125      -82.5228   26.3248  -79.2216 H         1 UNK         0.0793 
    126 H126      -83.0191   24.8905  -78.3232 H         1 UNK         0.0793 
    127 H127      -80.9074   27.5520  -76.7663 H         1 UNK         0.2896 
@<TRIPOS>BOND
     1    1    2 1    
     2    1   67 1    
     3    1   68 1    
     4    1   69 1    
     5    2    3 2    
     6    2    4 am   BACKBONE|DICT|INTERRES
     7    4    5 1    
     8    4   70 1    
     9    5    6 1    
    10    5   65 1    
    11    5   71 1    
    12    6    7 1    
    13    6   72 1    
    14    6   73 1    
    15    7    8 1    
    16    8    9 1    
    17    8   74 1    
    18    8   75 1    
    19    9   10 ar   
    20    9   14 ar   
    21   10   11 ar   
    22   10   76 1    
    23   11   12 ar   
    24   11   48 1    
    25   12   13 ar   
    26   12   77 1    
    27   13   14 ar   
    28   13   15 1    
    29   14   78 1    
    30   15   16 1    
    31   15   79 1    
    32   15   80 1    
    33   16   17 1    
    34   17   18 1    
    35   17   81 1    
    36   17   82 1    
    37   18   19 1    
    38   18   22 1    
    39   18   83 1    
    40   19   20 am   BACKBONE|DICT|INTERRES
    41   19   21 2    
    42   20   84 1    
    43   20   85 1    
    44   22   23 am   BACKBONE|DICT|INTERRES
    45   22   86 1    
    46   23   24 2    
    47   23   25 1    
    48   25   26 1    
    49   25   27 1    
    50   25   87 1    
    51   26   88 1    
    52   26   89 1    
    53   26   90 1    
    54   27   28 am   BACKBONE|DICT|INTERRES
    55   27   91 1    
    56   28   29 2    
    57   28   30 1    
    58   30   31 1    
    59   30   32 1    
    60   30   92 1    
    61   31   93 1    
    62   31   94 1    
    63   31   95 1    
    64   32   33 am   BACKBONE|DICT|INTERRES
    65   32   96 1    
    66   33   34 2    
    67   33   35 1    
    68   35   36 1    
    69   35   37 1    
    70   35   97 1    
    71   36   98 1    
    72   36   99 1    
    73   36  100 1    
    74   37   38 am   BACKBONE|DICT|INTERRES
    75   37  101 1    
    76   38   39 2    
    77   38   40 1    
    78   40   41 1    
    79   40   42 1    
    80   40  102 1    
    81   41  103 1    
    82   41  104 1    
    83   41  105 1    
    84   42   43 am   BACKBONE|DICT|INTERRES
    85   42  106 1    
    86   43   44 2    
    87   43   45 1    
    88   45   46 1    
    89   45   49 1    
    90   45  107 1    
    91   46   47 1    
    92   46  108 1    
    93   46  109 1    
    94   47   48 1    
    95   48  110 1    
    96   48  111 1    
    97   49   50 am   BACKBONE|DICT|INTERRES
    98   49  112 1    
    99   50   51 2    
   100   50   52 1    
   101   52   53 1    
   102   52   54 1    
   103   52  113 1    
   104   53  114 1    
   105   53  115 1    
   106   53  116 1    
   107   54   55 am   BACKBONE|DICT|INTERRES
   108   54  117 1    
   109   55   56 2    
   110   55   57 1    
   111   57   58 1    
   112   57   59 1    
   113   57  118 1    
   114   58  119 1    
   115   58  120 1    
   116   58  121 1    
   117   59   60 am   BACKBONE|DICT|INTERRES
   118   59  122 1    
   119   60   61 2    
   120   60   62 1    
   121   62   63 1    
   122   62   64 1    
   123   62  123 1    
   124   63  124 1    
   125   63  125 1    
   126   63  126 1    
   127   64   65 am   BACKBONE|DICT|INTERRES
   128   64  127 1    
   129   65   66 2    
@<TRIPOS>SUBSTRUCTURE
     1 UNK         1 GROUP             0       ****    0 ROOT    
