@<TRIPOS>MOLECULE
3R135
127   129    1
SMALL
USER_CHARGES


@<TRIPOS>ATOM
      1 CA        -81.3211   23.1332  -71.7619 C.3       0 UNK        -0.1998 
      2 C         -81.0973   24.3481  -72.6478 C.2       0 UNK         0.4909 
      3 O         -80.2124   24.3231  -73.5025 O.2       0 UNK        -0.5240 
      4 N         -81.8948   25.4099  -72.4586 N.am      1 UNK        -0.4739 
      5 CA        -81.8246   26.6827  -73.1976 C.3       1 UNK         0.0864 
      6 C6        -80.5366   27.4859  -72.8569 C.3       11 UNK        -0.0881 
      7 S7        -80.8204   29.2878  -72.7895 S.3       11 UNK        -0.2682 
      8 C8        -79.7403   29.7852  -71.4050 C.3       11 UNK         0.0289 
      9 C9        -78.2760   29.4972  -71.7055 C.ar      11 UNK        -0.0687 
     10 C10       -77.6074   28.4581  -71.0493 C.ar      11 UNK        -0.0823 
     11 C11       -76.2889   28.1336  -71.3905 C.ar      11 UNK        -0.0830 
     12 C12       -75.6308   28.8941  -72.3617 C.ar      11 UNK        -0.1021 
     13 C13       -76.2729   29.9628  -72.9928 C.ar      11 UNK        -0.0753 
     14 C14       -77.5977   30.2568  -72.6629 C.ar      11 UNK        -0.0933 
     15 C15       -75.5576   30.7649  -74.0703 C.3       11 UNK         0.0166 
     16 S16       -74.8262   32.3033  -73.4244 S.3       11 UNK        -0.2615 
     17 C17       -73.3859   31.6986  -72.4758 C.3       11 UNK        -0.0865 
     18 CA        -72.0616   31.7686  -73.2794 C.3       10 UNK         0.0862 
     19 C         -70.8535   31.4074  -72.3752 C.2       10 UNK         0.5551 
     20 N         -70.0925   32.3955  -71.9265 N.am      10 UNK        -0.7319 
     21 O         -70.6350   30.2453  -72.0402 O.2       10 UNK        -0.5018 
     22 N         -72.1132   30.9141  -74.4721 N.am      10 UNK        -0.4509 
     23 C         -71.2756   30.9855  -75.5117 C.2       10 UNK         0.4899 
     24 O         -70.3767   31.8212  -75.6141 O.2       10 UNK        -0.4839 
     25 CA        -71.5098   29.9503  -76.6290 C.3       9 UNK         0.0222 
     26 CB        -70.4003   29.9495  -77.7026 C.3       9 UNK        -0.1966 
     27 N         -71.7453   28.5970  -76.1093 N.am      9 UNK        -0.4218 
     28 C         -70.8910   27.8372  -75.4007 C.2       9 UNK         0.5020 
     29 O         -69.7527   28.1905  -75.0902 O.2       9 UNK        -0.5274 
     30 CA        -71.3738   26.4418  -74.9516 C.3       8 UNK         0.0270 
     31 CB        -71.7127   26.4593  -73.4516 C.3       8 UNK        -0.1976 
     32 N         -72.5294   25.9414  -75.7036 N.am      8 UNK        -0.4313 
     33 C         -72.5077   25.6080  -77.0045 C.2       8 UNK         0.5041 
     34 O         -71.4733   25.5605  -77.6715 O.2       8 UNK        -0.5577 
     35 CA        -73.8514   25.3097  -77.7038 C.3       7 UNK         0.0284 
     36 CB        -74.0195   23.7956  -77.9108 C.3       7 UNK        -0.1958 
     37 N         -75.0398   25.8280  -77.0185 N.am      7 UNK        -0.4454 
     38 C         -75.2613   27.0993  -76.6554 C.2       7 UNK         0.5089 
     39 O         -74.5065   28.0339  -76.9278 O.2       7 UNK        -0.5125 
     40 CA        -76.4806   27.3600  -75.7543 C.3       6 UNK         0.0408 
     41 CB        -77.6954   27.8078  -76.5773 C.3       6 UNK        -0.1791 
     42 N         -76.8521   26.2346  -74.8879 N.am      6 UNK        -0.4762 
     43 C         -76.0503   25.6451  -73.9846 C.2       6 UNK         0.5007 
     44 O         -74.8558   25.9126  -73.8528 O.2       6 UNK        -0.5032 
     45 CA        -76.6927   24.5589  -73.1027 C.3       5 UNK         0.0783 
     46 C46       -77.4834   25.1860  -71.9269 C.3       11 UNK        -0.0857 
     47 S47       -76.5223   25.4691  -70.4017 S.3       11 UNK        -0.2512 
     48 C48       -75.5403   26.9786  -70.7261 C.3       11 UNK         0.0225 
     49 N         -77.5533   23.6973  -73.9157 N.am      5 UNK        -0.4615 
     50 C         -77.1130   22.7219  -74.7163 C.2       4 UNK         0.5053 
     51 O         -75.9325   22.3820  -74.7984 O.2       4 UNK        -0.5105 
     52 CA        -78.1681   22.0201  -75.5882 C.3       4 UNK         0.0263 
     53 CB        -79.0562   21.0942  -74.7407 C.3       4 UNK        -0.1981 
     54 N         -79.0130   22.9303  -76.3717 N.am      4 UNK        -0.4224 
     55 C         -78.5776   23.8475  -77.2455 C.2       3 UNK         0.4895 
     56 O         -77.3911   24.1343  -77.4005 O.2       3 UNK        -0.5091 
     57 CA        -79.6202   24.5594  -78.1275 C.3       3 UNK         0.0250 
     58 CB        -79.9265   23.7238  -79.3861 C.3       3 UNK        -0.1996 
     59 N         -80.8552   24.9876  -77.4543 N.am      3 UNK        -0.4254 
     60 C         -81.8472   24.2409  -76.9519 C.2       2 UNK         0.5004 
     61 O         -81.8105   23.0116  -76.8658 O.2       2 UNK        -0.5226 
     62 CA        -83.0786   25.0126  -76.4405 C.3       2 UNK         0.0269 
     63 CB        -84.3554   24.1523  -76.4706 C.3       2 UNK        -0.1926 
     64 N         -82.8624   25.4873  -75.0761 N.am      2 UNK        -0.4687 
     65 C         -82.0549   26.4971  -74.7201 C.2       1 UNK         0.5165 
     66 O         -81.4956   27.2295  -75.5394 O.2       1 UNK        -0.5079 
     67 H67       -80.3960   22.8672  -71.2514 H         1 UNK         0.0900 
     68 H68       -81.6333   22.2825  -72.3669 H         1 UNK         0.0900 
     69 H69       -82.0856   23.3139  -71.0068 H         1 UNK         0.0900 
     70 H70       -82.6114   25.3650  -71.7465 H         1 UNK         0.2959 
     71 H71       -82.6844   27.2560  -72.8471 H         1 UNK         0.1079 
     72 H72       -79.7236   27.2701  -73.5528 H         1 UNK         0.0837 
     73 H73       -80.1690   27.1799  -71.8767 H         1 UNK         0.0837 
     74 H74       -79.8677   30.8530  -71.2218 H         1 UNK         0.0685 
     75 H75       -80.0609   29.2769  -70.4942 H         1 UNK         0.0685 
     76 H76       -78.1252   27.8769  -70.2989 H         1 UNK         0.1434 
     77 H77       -74.6160   28.6427  -72.6376 H         1 UNK         0.1329 
     78 H78       -78.1111   31.0633  -73.1685 H         1 UNK         0.1335 
     79 H79       -76.2678   31.0237  -74.8572 H         1 UNK         0.0680 
     80 H80       -74.7900   30.1600  -74.5531 H         1 UNK         0.0680 
     81 H81       -73.5658   30.6883  -72.1095 H         1 UNK         0.1032 
     82 H82       -73.3110   32.3222  -71.5828 H         1 UNK         0.1032 
     83 H83       -71.9364   32.7984  -73.6216 H         1 UNK         0.0461 
     84 H84       -69.3139   32.1798  -71.3235 H         1 UNK         0.3453 
     85 H85       -70.2708   33.3519  -72.1913 H         1 UNK         0.3453 
     86 H86       -72.7932   30.1725  -74.4581 H         1 UNK         0.2984 
     87 H87       -72.4372   30.2449  -77.1226 H         1 UNK         0.0554 
     88 H88       -70.6067   29.2195  -78.4852 H         1 UNK         0.0847 
     89 H89       -69.4230   29.7187  -77.2779 H         1 UNK         0.0847 
     90 H90       -70.3217   30.9255  -78.1829 H         1 UNK         0.0847 
     91 H91       -72.6644   28.2151  -76.3201 H         1 UNK         0.3141 
     92 H92       -70.5476   25.7451  -75.1073 H         1 UNK         0.0743 
     93 H93       -72.5178   27.1604  -73.2287 H         1 UNK         0.0784 
     94 H94       -72.0191   25.4739  -73.1000 H         1 UNK         0.0784 
     95 H95       -70.8479   26.7615  -72.8591 H         1 UNK         0.0784 
     96 H96       -73.4171   25.9263  -75.2067 H         1 UNK         0.3213 
     97 H97       -73.8120   25.7888  -78.6840 H         1 UNK         0.0855 
     98 H98       -74.1267   23.2702  -76.9606 H         1 UNK         0.0814 
     99 H99       -73.1572   23.3699  -78.4260 H         1 UNK         0.0814 
    100 H100      -74.8983   23.5730  -78.5163 H         1 UNK         0.0814 
    101 H101      -75.7659   25.1490  -76.8071 H         1 UNK         0.3105 
    102 H102      -76.2100   28.1819  -75.0947 H         1 UNK         0.0547 
    103 H103      -78.0154   27.0332  -77.2709 H         1 UNK         0.0837 
    104 H104      -78.5413   28.0623  -75.9376 H         1 UNK         0.0837 
    105 H105      -77.4587   28.6943  -77.1673 H         1 UNK         0.0837 
    106 H106      -77.8059   25.9107  -74.9519 H         1 UNK         0.3020 
    107 H107      -75.8874   23.9431  -72.6953 H         1 UNK         0.1245 
    108 H108      -78.2694   24.4961  -71.6184 H         1 UNK         0.0781 
    109 H109      -78.0128   26.0884  -72.2288 H         1 UNK         0.0781 
    110 H110      -74.6766   26.6913  -71.3272 H         1 UNK         0.0836 
    111 H111      -75.1363   27.3341  -69.7775 H         1 UNK         0.0836 
    112 H112      -78.5544   23.8958  -73.8848 H         1 UNK         0.3022 
    113 H113      -77.6273   21.3989  -76.3050 H         1 UNK         0.0747 
    114 H114      -79.7170   20.4964  -75.3686 H         1 UNK         0.0793 
    115 H115      -78.4521   20.4008  -74.1540 H         1 UNK         0.0793 
    116 H116      -79.6780   21.6567  -74.0440 H         1 UNK         0.0793 
    117 H117      -80.0186   22.7830  -76.3285 H         1 UNK         0.3047 
    118 H118      -79.1510   25.4794  -78.4759 H         1 UNK         0.0822 
    119 H119      -80.5900   24.2584  -80.0659 H         1 UNK         0.0807 
    120 H120      -80.3944   22.7698  -79.1413 H         1 UNK         0.0807 
    121 H121      -79.0112   23.5014  -79.9365 H         1 UNK         0.0807 
    122 H122      -80.9566   25.9907  -77.3507 H         1 UNK         0.2946 
    123 H123      -83.2390   25.8722  -77.0958 H         1 UNK         0.1144 
    124 H124      -84.2831   23.2924  -75.8032 H         1 UNK         0.0793 
    125 H125      -84.5432   23.7701  -77.4749 H         1 UNK         0.0793 
    126 H126      -85.2307   24.7317  -76.1765 H         1 UNK         0.0793 
    127 H127      -83.2466   24.9161  -74.3375 H         1 UNK         0.2896 
@<TRIPOS>BOND
     1    1    2 1    
     2    1   67 1    
     3    1   68 1    
     4    1   69 1    
     5    2    3 2    
     6    2    4 am   BACKBONE|DICT|INTERRES
     7    4    5 1    
     8    4   70 1    
     9    5    6 1    
    10    5   65 1    
    11    5   71 1    
    12    6    7 1    
    13    6   72 1    
    14    6   73 1    
    15    7    8 1    
    16    8    9 1    
    17    8   74 1    
    18    8   75 1    
    19    9   10 ar   
    20    9   14 ar   
    21   10   11 ar   
    22   10   76 1    
    23   11   12 ar   
    24   11   48 1    
    25   12   13 ar   
    26   12   77 1    
    27   13   14 ar   
    28   13   15 1    
    29   14   78 1    
    30   15   16 1    
    31   15   79 1    
    32   15   80 1    
    33   16   17 1    
    34   17   18 1    
    35   17   81 1    
    36   17   82 1    
    37   18   19 1    
    38   18   22 1    
    39   18   83 1    
    40   19   20 am   BACKBONE|DICT|INTERRES
    41   19   21 2    
    42   20   84 1    
    43   20   85 1    
    44   22   23 am   BACKBONE|DICT|INTERRES
    45   22   86 1    
    46   23   24 2    
    47   23   25 1    
    48   25   26 1    
    49   25   27 1    
    50   25   87 1    
    51   26   88 1    
    52   26   89 1    
    53   26   90 1    
    54   27   28 am   BACKBONE|DICT|INTERRES
    55   27   91 1    
    56   28   29 2    
    57   28   30 1    
    58   30   31 1    
    59   30   32 1    
    60   30   92 1    
    61   31   93 1    
    62   31   94 1    
    63   31   95 1    
    64   32   33 am   BACKBONE|DICT|INTERRES
    65   32   96 1    
    66   33   34 2    
    67   33   35 1    
    68   35   36 1    
    69   35   37 1    
    70   35   97 1    
    71   36   98 1    
    72   36   99 1    
    73   36  100 1    
    74   37   38 am   BACKBONE|DICT|INTERRES
    75   37  101 1    
    76   38   39 2    
    77   38   40 1    
    78   40   41 1    
    79   40   42 1    
    80   40  102 1    
    81   41  103 1    
    82   41  104 1    
    83   41  105 1    
    84   42   43 am   BACKBONE|DICT|INTERRES
    85   42  106 1    
    86   43   44 2    
    87   43   45 1    
    88   45   46 1    
    89   45   49 1    
    90   45  107 1    
    91   46   47 1    
    92   46  108 1    
    93   46  109 1    
    94   47   48 1    
    95   48  110 1    
    96   48  111 1    
    97   49   50 am   BACKBONE|DICT|INTERRES
    98   49  112 1    
    99   50   51 2    
   100   50   52 1    
   101   52   53 1    
   102   52   54 1    
   103   52  113 1    
   104   53  114 1    
   105   53  115 1    
   106   53  116 1    
   107   54   55 am   BACKBONE|DICT|INTERRES
   108   54  117 1    
   109   55   56 2    
   110   55   57 1    
   111   57   58 1    
   112   57   59 1    
   113   57  118 1    
   114   58  119 1    
   115   58  120 1    
   116   58  121 1    
   117   59   60 am   BACKBONE|DICT|INTERRES
   118   59  122 1    
   119   60   61 2    
   120   60   62 1    
   121   62   63 1    
   122   62   64 1    
   123   62  123 1    
   124   63  124 1    
   125   63  125 1    
   126   63  126 1    
   127   64   65 am   BACKBONE|DICT|INTERRES
   128   64  127 1    
   129   65   66 2    
@<TRIPOS>SUBSTRUCTURE
     1 UNK         1 GROUP             0       ****    0 ROOT    
