@<TRIPOS>MOLECULE
3R135
127   129    1
SMALL
USER_CHARGES


@<TRIPOS>ATOM
      1 CA        -77.5960   29.9970  -76.0851 C.3       0 UNK        -0.1998 
      2 C         -79.0279   29.7358  -75.6375 C.2       0 UNK         0.4909 
      3 O         -79.9586   30.2252  -76.2764 O.2       0 UNK        -0.5240 
      4 N         -79.1938   28.9836  -74.5405 N.am      1 UNK        -0.4739 
      5 CA        -80.4573   28.6571  -73.8642 C.3       1 UNK         0.0864 
      6 C6        -81.1863   29.8835  -73.2469 C.3       11 UNK        -0.0881 
      7 S7        -80.1356   30.9466  -72.1935 S.3       11 UNK        -0.2682 
      8 C8        -79.7586   29.8786  -70.7592 C.3       11 UNK         0.0289 
      9 C9        -78.6642   28.8529  -71.0444 C.ar      11 UNK        -0.0687 
     10 C10       -78.8510   27.5083  -70.7005 C.ar      11 UNK        -0.0823 
     11 C11       -77.8577   26.5582  -70.9660 C.ar      11 UNK        -0.0830 
     12 C12       -76.6679   26.9676  -71.5728 C.ar      11 UNK        -0.1021 
     13 C13       -76.4744   28.3014  -71.9362 C.ar      11 UNK        -0.0753 
     14 C14       -77.4665   29.2425  -71.6544 C.ar      11 UNK        -0.0933 
     15 C15       -75.2071   28.7088  -72.6654 C.3       11 UNK         0.0166 
     16 S16       -73.9323   29.3275  -71.5233 S.3       11 UNK        -0.2615 
     17 C17       -74.1150   31.1360  -71.7368 C.3       11 UNK        -0.0865 
     18 CA        -73.1357   31.7346  -72.7849 C.3       10 UNK         0.0862 
     19 C         -71.6909   31.8942  -72.2229 C.2       10 UNK         0.5551 
     20 N         -70.6697   31.2683  -72.7970 N.am      10 UNK        -0.7319 
     21 O         -71.4922   32.6186  -71.2505 O.2       10 UNK        -0.5018 
     22 N         -73.2233   31.0100  -74.0597 N.am      10 UNK        -0.4509 
     23 C         -72.8925   31.4850  -75.2639 C.2       10 UNK         0.4899 
     24 O         -72.5742   32.6564  -75.4733 O.2       10 UNK        -0.4839 
     25 CA        -72.9284   30.4692  -76.4264 C.3       9 UNK         0.0222 
     26 CB        -71.9935   30.8704  -77.5863 C.3       9 UNK        -0.1966 
     27 N         -72.6728   29.0752  -76.0253 N.am      9 UNK        -0.4218 
     28 C         -71.5804   28.5965  -75.4013 C.2       9 UNK         0.5020 
     29 O         -70.6599   29.3107  -75.0011 O.2       9 UNK        -0.5274 
     30 CA        -71.4880   27.0760  -75.1571 C.3       8 UNK         0.0270 
     31 CB        -71.6689   26.7494  -73.6658 C.3       8 UNK        -0.1976 
     32 N         -72.4430   26.2928  -75.9455 N.am      8 UNK        -0.4313 
     33 C         -72.3483   26.1014  -77.2708 C.2       8 UNK         0.5041 
     34 O         -71.3858   26.4749  -77.9424 O.2       8 UNK        -0.5577 
     35 CA        -73.5248   25.4073  -77.9849 C.3       7 UNK         0.0284 
     36 CB        -73.1611   23.9535  -78.3259 C.3       7 UNK        -0.1958 
     37 N         -74.7877   25.4262  -77.2398 N.am      7 UNK        -0.4454 
     38 C         -75.4542   26.5274  -76.8602 C.2       7 UNK         0.5089 
     39 O         -75.0750   27.6741  -77.1005 O.2       7 UNK        -0.5125 
     40 CA        -76.7307   26.3234  -76.0238 C.3       6 UNK         0.0408 
     41 CB        -77.9584   26.3435  -76.9458 C.3       6 UNK        -0.1791 
     42 N         -76.7480   25.0988  -75.2156 N.am      6 UNK        -0.4762 
     43 C         -75.8080   24.7284  -74.3303 C.2       6 UNK         0.5007 
     44 O         -74.8072   25.4008  -74.0766 O.2       6 UNK        -0.5032 
     45 CA        -75.9590   23.3379  -73.6819 C.3       5 UNK         0.0783 
     46 C46       -76.4906   23.3904  -72.2265 C.3       11 UNK        -0.0857 
     47 S47       -78.2040   23.9983  -72.0310 S.3       11 UNK        -0.2512 
     48 C48       -78.0638   25.0976  -70.5796 C.3       11 UNK         0.0225 
     49 N         -76.6851   22.3840  -74.5322 N.am      5 UNK        -0.4615 
     50 C         -76.1894   21.8902  -75.6785 C.2       4 UNK         0.5053 
     51 O         -75.1095   22.2400  -76.1542 O.2       4 UNK        -0.5105 
     52 CA        -77.0106   20.8246  -76.4214 C.3       4 UNK         0.0263 
     53 CB        -76.5814   19.4168  -75.9777 C.3       4 UNK        -0.1981 
     54 N         -78.4538   20.9698  -76.2367 N.am      4 UNK        -0.4224 
     55 C         -79.2081   21.8970  -76.8410 C.2       3 UNK         0.4895 
     56 O         -78.7625   22.7226  -77.6410 O.2       3 UNK        -0.5091 
     57 CA        -80.7195   21.8849  -76.5233 C.3       3 UNK         0.0250 
     58 CB        -81.0890   21.0629  -75.2655 C.3       3 UNK        -0.1996 
     59 N         -81.3002   23.2297  -76.4223 N.am      3 UNK        -0.4254 
     60 C         -80.8916   24.2182  -75.6148 C.2       2 UNK         0.5004 
     61 O         -79.8896   24.1603  -74.8962 O.2       2 UNK        -0.5226 
     62 CA        -81.7729   25.4741  -75.5815 C.3       2 UNK         0.0269 
     63 CB        -83.1383   25.1664  -74.9298 C.3       2 UNK        -0.1926 
     64 N         -81.0683   26.5009  -74.8196 N.am      2 UNK        -0.4687 
     65 C         -81.3811   27.7983  -74.7500 C.2       1 UNK         0.5165 
     66 O         -82.3371   28.3043  -75.3414 O.2       1 UNK        -0.5079 
     67 H67       -77.4266   29.5817  -77.0780 H         1 UNK         0.0900 
     68 H68       -76.8652   29.5607  -75.4061 H         1 UNK         0.0900 
     69 H69       -77.4096   31.0696  -76.1311 H         1 UNK         0.0900 
     70 H70       -78.3747   28.6268  -74.0697 H         1 UNK         0.2959 
     71 H71       -80.1890   28.0053  -73.0355 H         1 UNK         0.1079 
     72 H72       -81.5929   30.5168  -74.0374 H         1 UNK         0.0837 
     73 H73       -82.0436   29.5560  -72.6560 H         1 UNK         0.0837 
     74 H74       -80.6769   29.3933  -70.4250 H         1 UNK         0.0685 
     75 H75       -79.4271   30.5111  -69.9348 H         1 UNK         0.0685 
     76 H76       -79.7733   27.2005  -70.2266 H         1 UNK         0.1434 
     77 H77       -75.8902   26.2471  -71.7764 H         1 UNK         0.1329 
     78 H78       -77.3171   30.2775  -71.9283 H         1 UNK         0.1335 
     79 H79       -74.8060   27.8560  -73.2110 H         1 UNK         0.0680 
     80 H80       -75.4426   29.4557  -73.4234 H         1 UNK         0.0680 
     81 H81       -75.1413   31.3635  -72.0265 H         1 UNK         0.1032 
     82 H82       -73.9858   31.6160  -70.7648 H         1 UNK         0.1032 
     83 H83       -73.4743   32.7544  -72.9777 H         1 UNK         0.0461 
     84 H84       -70.8054   30.6611  -73.5994 H         1 UNK         0.3453 
     85 H85       -69.7444   31.3929  -72.4193 H         1 UNK         0.3453 
     86 H86       -73.4229   30.0252  -73.9775 H         1 UNK         0.2984 
     87 H87       -73.9507   30.4865  -76.8070 H         1 UNK         0.0554 
     88 H88       -72.0507   30.1551  -78.4069 H         1 UNK         0.0847 
     89 H89       -70.9532   30.9279  -77.2639 H         1 UNK         0.0847 
     90 H90       -72.2634   31.8466  -77.9910 H         1 UNK         0.0847 
     91 H91       -73.3887   28.4143  -76.3150 H         1 UNK         0.3141 
     92 H92       -70.4801   26.7699  -75.4454 H         1 UNK         0.0743 
     93 H93       -70.9534   27.3002  -73.0534 H         1 UNK         0.0784 
     94 H94       -72.6652   27.0080  -73.3109 H         1 UNK         0.0784 
     95 H95       -71.5119   25.6885  -73.4708 H         1 UNK         0.0784 
     96 H96       -73.2609   25.9434  -75.4560 H         1 UNK         0.3213 
     97 H97       -73.6933   25.9464  -78.9195 H         1 UNK         0.0855 
     98 H98       -72.2621   23.9100  -78.9423 H         1 UNK         0.0814 
     99 H99       -73.9589   23.4618  -78.8829 H         1 UNK         0.0814 
    100 H100      -72.9677   23.3663  -77.4273 H         1 UNK         0.0814 
    101 H101      -75.1583   24.5269  -76.9599 H         1 UNK         0.3105 
    102 H102      -76.8009   27.1621  -75.3303 H         1 UNK         0.0547 
    103 H103      -78.0031   25.4555  -77.5776 H         1 UNK         0.0837 
    104 H104      -78.8805   26.3928  -76.3729 H         1 UNK         0.0837 
    105 H105      -77.9472   27.2116  -77.6059 H         1 UNK         0.0837 
    106 H106      -77.5496   24.4897  -75.3311 H         1 UNK         0.3020 
    107 H107      -74.9375   22.9557  -73.6089 H         1 UNK         0.1245 
    108 H108      -75.8138   23.9858  -71.6128 H         1 UNK         0.0781 
    109 H109      -76.4514   22.3888  -71.7955 H         1 UNK         0.0781 
    110 H110      -77.2524   24.7692  -69.9289 H         1 UNK         0.0836 
    111 H111      -78.9756   24.9912  -69.9901 H         1 UNK         0.0836 
    112 H112      -77.5986   22.0952  -74.2134 H         1 UNK         0.3022 
    113 H113      -76.7888   20.9247  -77.4864 H         1 UNK         0.0747 
    114 H114      -77.0960   18.6455  -76.5511 H         1 UNK         0.0793 
    115 H115      -75.5109   19.2699  -76.1294 H         1 UNK         0.0793 
    116 H116      -76.7869   19.2441  -74.9204 H         1 UNK         0.0793 
    117 H117      -78.9009   20.3263  -75.5998 H         1 UNK         0.3047 
    118 H118      -81.1991   21.4106  -77.3808 H         1 UNK         0.0822 
    119 H119      -80.8344   20.0088  -75.3825 H         1 UNK         0.0807 
    120 H120      -82.1615   21.1033  -75.0744 H         1 UNK         0.0807 
    121 H121      -80.5846   21.4359  -74.3727 H         1 UNK         0.0807 
    122 H122      -82.1087   23.3945  -77.0055 H         1 UNK         0.2946 
    123 H123      -81.9155   25.8268  -76.6053 H         1 UNK         0.1144 
    124 H124      -83.0212   24.8192  -73.9024 H         1 UNK         0.0793 
    125 H125      -83.6750   24.3903  -75.4765 H         1 UNK         0.0793 
    126 H126      -83.7850   26.0434  -74.9133 H         1 UNK         0.0793 
    127 H127      -80.2500   26.1422  -74.3393 H         1 UNK         0.2896 
@<TRIPOS>BOND
     1    1    2 1    
     2    1   67 1    
     3    1   68 1    
     4    1   69 1    
     5    2    3 2    
     6    2    4 am   BACKBONE|DICT|INTERRES
     7    4    5 1    
     8    4   70 1    
     9    5    6 1    
    10    5   65 1    
    11    5   71 1    
    12    6    7 1    
    13    6   72 1    
    14    6   73 1    
    15    7    8 1    
    16    8    9 1    
    17    8   74 1    
    18    8   75 1    
    19    9   10 ar   
    20    9   14 ar   
    21   10   11 ar   
    22   10   76 1    
    23   11   12 ar   
    24   11   48 1    
    25   12   13 ar   
    26   12   77 1    
    27   13   14 ar   
    28   13   15 1    
    29   14   78 1    
    30   15   16 1    
    31   15   79 1    
    32   15   80 1    
    33   16   17 1    
    34   17   18 1    
    35   17   81 1    
    36   17   82 1    
    37   18   19 1    
    38   18   22 1    
    39   18   83 1    
    40   19   20 am   BACKBONE|DICT|INTERRES
    41   19   21 2    
    42   20   84 1    
    43   20   85 1    
    44   22   23 am   BACKBONE|DICT|INTERRES
    45   22   86 1    
    46   23   24 2    
    47   23   25 1    
    48   25   26 1    
    49   25   27 1    
    50   25   87 1    
    51   26   88 1    
    52   26   89 1    
    53   26   90 1    
    54   27   28 am   BACKBONE|DICT|INTERRES
    55   27   91 1    
    56   28   29 2    
    57   28   30 1    
    58   30   31 1    
    59   30   32 1    
    60   30   92 1    
    61   31   93 1    
    62   31   94 1    
    63   31   95 1    
    64   32   33 am   BACKBONE|DICT|INTERRES
    65   32   96 1    
    66   33   34 2    
    67   33   35 1    
    68   35   36 1    
    69   35   37 1    
    70   35   97 1    
    71   36   98 1    
    72   36   99 1    
    73   36  100 1    
    74   37   38 am   BACKBONE|DICT|INTERRES
    75   37  101 1    
    76   38   39 2    
    77   38   40 1    
    78   40   41 1    
    79   40   42 1    
    80   40  102 1    
    81   41  103 1    
    82   41  104 1    
    83   41  105 1    
    84   42   43 am   BACKBONE|DICT|INTERRES
    85   42  106 1    
    86   43   44 2    
    87   43   45 1    
    88   45   46 1    
    89   45   49 1    
    90   45  107 1    
    91   46   47 1    
    92   46  108 1    
    93   46  109 1    
    94   47   48 1    
    95   48  110 1    
    96   48  111 1    
    97   49   50 am   BACKBONE|DICT|INTERRES
    98   49  112 1    
    99   50   51 2    
   100   50   52 1    
   101   52   53 1    
   102   52   54 1    
   103   52  113 1    
   104   53  114 1    
   105   53  115 1    
   106   53  116 1    
   107   54   55 am   BACKBONE|DICT|INTERRES
   108   54  117 1    
   109   55   56 2    
   110   55   57 1    
   111   57   58 1    
   112   57   59 1    
   113   57  118 1    
   114   58  119 1    
   115   58  120 1    
   116   58  121 1    
   117   59   60 am   BACKBONE|DICT|INTERRES
   118   59  122 1    
   119   60   61 2    
   120   60   62 1    
   121   62   63 1    
   122   62   64 1    
   123   62  123 1    
   124   63  124 1    
   125   63  125 1    
   126   63  126 1    
   127   64   65 am   BACKBONE|DICT|INTERRES
   128   64  127 1    
   129   65   66 2    
@<TRIPOS>SUBSTRUCTURE
     1 UNK         1 GROUP             0       ****    0 ROOT    
