@<TRIPOS>MOLECULE
3R135
127   129    1
SMALL
USER_CHARGES


@<TRIPOS>ATOM
      1 CA        -83.3482   23.2094  -73.9130 C.3       0 UNK        -0.1998 
      2 C         -82.1886   23.0826  -72.9286 C.2       0 UNK         0.4909 
      3 O         -81.7231   21.9707  -72.6899 O.2       0 UNK        -0.5240 
      4 N         -81.6939   24.1702  -72.3228 N.am      1 UNK        -0.4739 
      5 CA        -82.0172   25.5788  -72.5712 C.3       1 UNK         0.0864 
      6 C6        -81.6696   26.4803  -71.3508 C.3       11 UNK        -0.0881 
      7 S7        -80.0928   26.0833  -70.5036 S.3       11 UNK        -0.2682 
      8 C8        -79.5842   27.7005  -69.8430 C.3       11 UNK         0.0289 
      9 C9        -78.5987   28.4087  -70.7616 C.ar      11 UNK        -0.0687 
     10 C10       -79.0563   29.2780  -71.7567 C.ar      11 UNK        -0.0823 
     11 C11       -78.1498   29.9603  -72.5748 C.ar      11 UNK        -0.0830 
     12 C12       -76.7784   29.7746  -72.3816 C.ar      11 UNK        -0.1021 
     13 C13       -76.3077   28.8893  -71.4099 C.ar      11 UNK        -0.0753 
     14 C14       -77.2227   28.2111  -70.5988 C.ar      11 UNK        -0.0933 
     15 C15       -74.8117   28.6583  -71.2640 C.3       11 UNK         0.0166 
     16 S16       -73.9643   30.1613  -70.6872 S.3       11 UNK        -0.2615 
     17 C17       -72.2156   29.6589  -70.8054 C.3       11 UNK        -0.0865 
     18 CA        -71.4848   30.3174  -72.0055 C.3       10 UNK         0.0862 
     19 C         -69.9539   30.0795  -71.8979 C.2       10 UNK         0.5551 
     20 N         -69.1798   31.1125  -71.5956 N.am      10 UNK        -0.7319 
     21 O         -69.4752   28.9559  -72.0341 O.2       10 UNK        -0.5018 
     22 N         -72.0221   29.8463  -73.2910 N.am      10 UNK        -0.4509 
     23 C         -71.7130   30.3506  -74.4942 C.2       10 UNK         0.4899 
     24 O         -71.0186   31.3559  -74.6538 O.2       10 UNK        -0.4839 
     25 CA        -72.2900   29.6113  -75.7232 C.3       9 UNK         0.0222 
     26 CB        -71.5280   29.9249  -77.0281 C.3       9 UNK        -0.1966 
     27 N         -72.4163   28.1583  -75.5301 N.am      9 UNK        -0.4218 
     28 C         -71.4278   27.3008  -75.2264 C.2       9 UNK         0.5020 
     29 O         -70.2369   27.6079  -75.1704 O.2       9 UNK        -0.5274 
     30 CA        -71.8372   25.8633  -74.8840 C.3       8 UNK         0.0270 
     31 CB        -72.3458   25.7842  -73.4337 C.3       8 UNK        -0.1976 
     32 N         -72.8491   25.3241  -75.7939 N.am      8 UNK        -0.4313 
     33 C         -72.5582   24.7375  -76.9627 C.2       8 UNK         0.5041 
     34 O         -71.4215   24.6764  -77.4345 O.2       8 UNK        -0.5577 
     35 CA        -73.7163   24.0619  -77.7142 C.3       7 UNK         0.0284 
     36 CB        -74.1751   22.7915  -76.9791 C.3       7 UNK        -0.1958 
     37 N         -74.8589   24.9480  -77.9360 N.am      7 UNK        -0.4454 
     38 C         -74.8633   25.9663  -78.8074 C.2       7 UNK         0.5089 
     39 O         -73.9007   26.2729  -79.5116 O.2       7 UNK        -0.5125 
     40 CA        -76.1660   26.7768  -78.9278 C.3       6 UNK         0.0408 
     41 CB        -77.1540   26.0744  -79.8724 C.3       6 UNK        -0.1791 
     42 N         -76.8181   27.0241  -77.6419 N.am      6 UNK        -0.4762 
     43 C         -76.2909   27.7515  -76.6465 C.2       6 UNK         0.5007 
     44 O         -75.1921   28.3028  -76.7023 O.2       6 UNK        -0.5032 
     45 CA        -77.1069   27.8204  -75.3430 C.3       5 UNK         0.0783 
     46 C46       -78.3484   28.7400  -75.4903 C.3       11 UNK        -0.0857 
     47 S47       -77.9343   30.5061  -75.3070 S.3       11 UNK        -0.2512 
     48 C48       -78.6526   30.8900  -73.6729 C.3       11 UNK         0.0225 
     49 N         -77.4673   26.4863  -74.8587 N.am      5 UNK        -0.4615 
     50 C         -76.6124   25.4874  -74.5992 C.2       4 UNK         0.5053 
     51 O         -75.3888   25.5885  -74.6708 O.2       4 UNK        -0.5105 
     52 CA        -77.2299   24.1225  -74.2633 C.3       4 UNK         0.0263 
     53 CB        -77.5758   24.0306  -72.7697 C.3       4 UNK        -0.1981 
     54 N         -78.4190   23.8512  -75.0741 N.am      4 UNK        -0.4224 
     55 C         -78.3955   23.6270  -76.3966 C.2       3 UNK         0.4895 
     56 O         -77.3628   23.5665  -77.0635 O.2       3 UNK        -0.5091 
     57 CA        -79.7567   23.4930  -77.1002 C.3       3 UNK         0.0250 
     58 CB        -80.3564   22.0968  -76.8671 C.3       3 UNK        -0.1996 
     59 N         -80.7137   24.5167  -76.6738 N.am      3 UNK        -0.4254 
     60 C         -80.5678   25.8319  -76.8890 C.2       2 UNK         0.5004 
     61 O         -79.6407   26.3204  -77.5341 O.2       2 UNK        -0.5226 
     62 CA        -81.6066   26.7644  -76.2356 C.3       2 UNK         0.0269 
     63 CB        -82.8006   26.9774  -77.1792 C.3       2 UNK        -0.1926 
     64 N         -82.0956   26.3155  -74.9225 N.am      2 UNK        -0.4687 
     65 C         -81.3186   26.0461  -73.8618 C.2       1 UNK         0.5165 
     66 O         -80.0914   26.1152  -73.8927 O.2       1 UNK        -0.5079 
     67 H67       -83.7564   22.2246  -74.1402 H         1 UNK         0.0900 
     68 H68       -83.0228   23.6519  -74.8518 H         1 UNK         0.0900 
     69 H69       -84.1607   23.8049  -73.4989 H         1 UNK         0.0900 
     70 H70       -80.9295   24.0476  -71.6726 H         1 UNK         0.2959 
     71 H71       -83.0938   25.6716  -72.7216 H         1 UNK         0.1079 
     72 H72       -81.6814   27.5339  -71.6357 H         1 UNK         0.0837 
     73 H73       -82.4578   26.3776  -70.6034 H         1 UNK         0.0837 
     74 H74       -79.1235   27.5438  -68.8666 H         1 UNK         0.0685 
     75 H75       -80.4591   28.3267  -69.6617 H         1 UNK         0.0685 
     76 H76       -80.1190   29.4239  -71.8911 H         1 UNK         0.1434 
     77 H77       -76.0720   30.3035  -73.0072 H         1 UNK         0.1329 
     78 H78       -76.8665   27.5293  -69.8387 H         1 UNK         0.1335 
     79 H79       -74.6096   27.8413  -70.5696 H         1 UNK         0.0680 
     80 H80       -74.4071   28.3561  -72.2303 H         1 UNK         0.0680 
     81 H81       -71.7395   29.9527  -69.8676 H         1 UNK         0.1032 
     82 H82       -72.1359   28.5708  -70.8490 H         1 UNK         0.1032 
     83 H83       -71.6663   31.3933  -71.9579 H         1 UNK         0.0461 
     84 H84       -68.1859   30.9708  -71.5038 H         1 UNK         0.3453 
     85 H85       -69.5672   32.0359  -71.4777 H         1 UNK         0.3453 
     86 H86       -72.5825   29.0104  -73.2575 H         1 UNK         0.2984 
     87 H87       -73.3056   29.9902  -75.8416 H         1 UNK         0.0554 
     88 H88       -71.9733   29.4086  -77.8786 H         1 UNK         0.0847 
     89 H89       -70.4801   29.6300  -76.9665 H         1 UNK         0.0847 
     90 H90       -71.5528   30.9924  -77.2501 H         1 UNK         0.0847 
     91 H91       -73.3597   27.7982  -75.6220 H         1 UNK         0.3141 
     92 H92       -70.9411   25.2414  -74.9477 H         1 UNK         0.0743 
     93 H93       -71.5913   26.1501  -72.7356 H         1 UNK         0.0784 
     94 H94       -73.2456   26.3807  -73.2830 H         1 UNK         0.0784 
     95 H95       -72.5773   24.7569  -73.1518 H         1 UNK         0.0784 
     96 H96       -73.8176   25.3518  -75.4719 H         1 UNK         0.3213 
     97 H97       -73.3374   23.7566  -78.6922 H         1 UNK         0.0855 
     98 H98       -74.6087   23.0203  -76.0055 H         1 UNK         0.0814 
     99 H99       -73.3381   22.1121  -76.8127 H         1 UNK         0.0814 
    100 H100      -74.9226   22.2482  -77.5574 H         1 UNK         0.0814 
    101 H101      -75.7169   24.7263  -77.4405 H         1 UNK         0.3105 
    102 H102      -75.9137   27.7468  -79.3611 H         1 UNK         0.0547 
    103 H103      -78.0454   26.6805  -80.0351 H         1 UNK         0.0837 
    104 H104      -76.7016   25.8930  -80.8481 H         1 UNK         0.0837 
    105 H105      -77.4753   25.1105  -79.4755 H         1 UNK         0.0837 
    106 H106      -77.7470   26.6270  -77.5163 H         1 UNK         0.3020 
    107 H107      -76.4466   28.2368  -74.5818 H         1 UNK         0.1245 
    108 H108      -79.0983   28.4847  -74.7408 H         1 UNK         0.0781 
    109 H109      -78.8427   28.6014  -76.4526 H         1 UNK         0.0781 
    110 H110      -79.7401   30.8462  -73.7515 H         1 UNK         0.0836 
    111 H111      -78.4034   31.9185  -73.4087 H         1 UNK         0.0836 
    112 H112      -78.4562   26.3197  -74.6855 H         1 UNK         0.3022 
    113 H113      -76.4874   23.3538  -74.4858 H         1 UNK         0.0747 
    114 H114      -77.9945   23.0567  -72.5158 H         1 UNK         0.0793 
    115 H115      -76.6854   24.1728  -72.1560 H         1 UNK         0.0793 
    116 H116      -78.2954   24.7935  -72.4741 H         1 UNK         0.0793 
    117 H117      -79.3112   23.9606  -74.6144 H         1 UNK         0.3047 
    118 H118      -79.5874   23.6186  -78.1720 H         1 UNK         0.0822 
    119 H119      -79.6645   21.3178  -77.1906 H         1 UNK         0.0807 
    120 H120      -81.2790   21.9620  -77.4321 H         1 UNK         0.0807 
    121 H121      -80.5783   21.9180  -75.8140 H         1 UNK         0.0807 
    122 H122      -81.5174   24.2059  -76.1515 H         1 UNK         0.2946 
    123 H123      -81.1196   27.7296  -76.0861 H         1 UNK         0.1144 
    124 H124      -82.4674   27.3298  -78.1567 H         1 UNK         0.0793 
    125 H125      -83.4891   27.7259  -76.7866 H         1 UNK         0.0793 
    126 H126      -83.3607   26.0552  -77.3390 H         1 UNK         0.0793 
    127 H127      -83.0987   26.2465  -74.8249 H         1 UNK         0.2896 
@<TRIPOS>BOND
     1    1    2 1    
     2    1   67 1    
     3    1   68 1    
     4    1   69 1    
     5    2    3 2    
     6    2    4 am   BACKBONE|DICT|INTERRES
     7    4    5 1    
     8    4   70 1    
     9    5    6 1    
    10    5   65 1    
    11    5   71 1    
    12    6    7 1    
    13    6   72 1    
    14    6   73 1    
    15    7    8 1    
    16    8    9 1    
    17    8   74 1    
    18    8   75 1    
    19    9   10 ar   
    20    9   14 ar   
    21   10   11 ar   
    22   10   76 1    
    23   11   12 ar   
    24   11   48 1    
    25   12   13 ar   
    26   12   77 1    
    27   13   14 ar   
    28   13   15 1    
    29   14   78 1    
    30   15   16 1    
    31   15   79 1    
    32   15   80 1    
    33   16   17 1    
    34   17   18 1    
    35   17   81 1    
    36   17   82 1    
    37   18   19 1    
    38   18   22 1    
    39   18   83 1    
    40   19   20 am   BACKBONE|DICT|INTERRES
    41   19   21 2    
    42   20   84 1    
    43   20   85 1    
    44   22   23 am   BACKBONE|DICT|INTERRES
    45   22   86 1    
    46   23   24 2    
    47   23   25 1    
    48   25   26 1    
    49   25   27 1    
    50   25   87 1    
    51   26   88 1    
    52   26   89 1    
    53   26   90 1    
    54   27   28 am   BACKBONE|DICT|INTERRES
    55   27   91 1    
    56   28   29 2    
    57   28   30 1    
    58   30   31 1    
    59   30   32 1    
    60   30   92 1    
    61   31   93 1    
    62   31   94 1    
    63   31   95 1    
    64   32   33 am   BACKBONE|DICT|INTERRES
    65   32   96 1    
    66   33   34 2    
    67   33   35 1    
    68   35   36 1    
    69   35   37 1    
    70   35   97 1    
    71   36   98 1    
    72   36   99 1    
    73   36  100 1    
    74   37   38 am   BACKBONE|DICT|INTERRES
    75   37  101 1    
    76   38   39 2    
    77   38   40 1    
    78   40   41 1    
    79   40   42 1    
    80   40  102 1    
    81   41  103 1    
    82   41  104 1    
    83   41  105 1    
    84   42   43 am   BACKBONE|DICT|INTERRES
    85   42  106 1    
    86   43   44 2    
    87   43   45 1    
    88   45   46 1    
    89   45   49 1    
    90   45  107 1    
    91   46   47 1    
    92   46  108 1    
    93   46  109 1    
    94   47   48 1    
    95   48  110 1    
    96   48  111 1    
    97   49   50 am   BACKBONE|DICT|INTERRES
    98   49  112 1    
    99   50   51 2    
   100   50   52 1    
   101   52   53 1    
   102   52   54 1    
   103   52  113 1    
   104   53  114 1    
   105   53  115 1    
   106   53  116 1    
   107   54   55 am   BACKBONE|DICT|INTERRES
   108   54  117 1    
   109   55   56 2    
   110   55   57 1    
   111   57   58 1    
   112   57   59 1    
   113   57  118 1    
   114   58  119 1    
   115   58  120 1    
   116   58  121 1    
   117   59   60 am   BACKBONE|DICT|INTERRES
   118   59  122 1    
   119   60   61 2    
   120   60   62 1    
   121   62   63 1    
   122   62   64 1    
   123   62  123 1    
   124   63  124 1    
   125   63  125 1    
   126   63  126 1    
   127   64   65 am   BACKBONE|DICT|INTERRES
   128   64  127 1    
   129   65   66 2    
@<TRIPOS>SUBSTRUCTURE
     1 UNK         1 GROUP             0       ****    0 ROOT    
