@<TRIPOS>MOLECULE
3R135
127   129    1
SMALL
USER_CHARGES


@<TRIPOS>ATOM
      1 CA        -75.3959   24.9803  -70.4352 C.3       0 UNK        -0.1998 
      2 C         -76.9107   24.8870  -70.5454 C.2       0 UNK         0.4909 
      3 O         -77.4731   23.8121  -70.3338 O.2       0 UNK        -0.5240 
      4 N         -77.5744   26.0046  -70.8630 N.am      1 UNK        -0.4739 
      5 CA        -79.0237   26.0895  -71.0667 C.3       1 UNK         0.0864 
      6 C6        -79.4851   27.5510  -71.2505 C.3       11 UNK        -0.0881 
      7 S7        -79.2372   28.6452  -69.8150 S.3       11 UNK        -0.2682 
      8 C8        -80.0949   30.1504  -70.4020 C.3       11 UNK         0.0289 
      9 C9        -79.4972   30.6662  -71.7054 C.ar      11 UNK        -0.0687 
     10 C10       -80.0012   30.2223  -72.9334 C.ar      11 UNK        -0.0823 
     11 C11       -79.3631   30.5634  -74.1278 C.ar      11 UNK        -0.0830 
     12 C12       -78.2754   31.4404  -74.0962 C.ar      11 UNK        -0.1021 
     13 C13       -77.7869   31.9233  -72.8789 C.ar      11 UNK        -0.0753 
     14 C14       -78.3987   31.5302  -71.6848 C.ar      11 UNK        -0.0933 
     15 C15       -76.5772   32.8436  -72.8638 C.3       11 UNK         0.0166 
     16 S16       -75.0415   31.9378  -73.2312 S.3       11 UNK        -0.2615 
     17 C17       -74.6830   31.1319  -71.6282 C.3       11 UNK        -0.0865 
     18 CA        -74.0055   29.7397  -71.7551 C.3       10 UNK         0.0862 
     19 C         -75.0214   28.5896  -72.0308 C.2       10 UNK         0.5551 
     20 N         -74.8632   27.7847  -73.0741 N.am      10 UNK        -0.7319 
     21 O         -75.9529   28.3943  -71.2563 O.2       10 UNK        -0.5018 
     22 N         -72.8534   29.7817  -72.6684 N.am      10 UNK        -0.4509 
     23 C         -71.8415   28.9100  -72.6738 C.2       10 UNK         0.4899 
     24 O         -71.6684   28.0377  -71.8204 O.2       10 UNK        -0.4839 
     25 CA        -70.8742   29.0094  -73.8644 C.3       9 UNK         0.0222 
     26 CB        -69.4457   29.3277  -73.3924 C.3       9 UNK        -0.1966 
     27 N         -70.8733   27.7632  -74.6329 N.am      9 UNK        -0.4218 
     28 C         -71.9299   27.2736  -75.2958 C.2       9 UNK         0.5020 
     29 O         -73.0167   27.8519  -75.3875 O.2       9 UNK        -0.5274 
     30 CA        -71.7610   25.8702  -75.8914 C.3       8 UNK         0.0270 
     31 CB        -72.2237   24.8128  -74.8746 C.3       8 UNK        -0.1976 
     32 N         -72.5350   25.7194  -77.1242 N.am      8 UNK        -0.4313 
     33 C         -72.1189   26.1234  -78.3309 C.2       8 UNK         0.5041 
     34 O         -71.0354   26.6794  -78.5202 O.2       8 UNK        -0.5577 
     35 CA        -73.0243   25.8438  -79.5411 C.3       7 UNK         0.0284 
     36 CB        -72.7830   24.4241  -80.0837 C.3       7 UNK        -0.1958 
     37 N         -74.4528   26.0300  -79.2664 N.am      7 UNK        -0.4454 
     38 C         -75.3254   26.5457  -80.1477 C.2       7 UNK         0.5089 
     39 O         -75.0059   26.9373  -81.2713 O.2       7 UNK        -0.5125 
     40 CA        -76.8107   26.6366  -79.7373 C.3       6 UNK         0.0408 
     41 CB        -77.6193   25.5173  -80.4116 C.3       6 UNK        -0.1791 
     42 N         -77.0187   26.5717  -78.2912 N.am      6 UNK        -0.4762 
     43 C         -76.6704   27.5391  -77.4307 C.2       6 UNK         0.5007 
     44 O         -76.2888   28.6533  -77.7917 O.2       6 UNK        -0.5032 
     45 CA        -76.6941   27.2045  -75.9220 C.3       5 UNK         0.0783 
     46 C46       -77.5841   28.1732  -75.1061 C.3       11 UNK        -0.0857 
     47 S47       -79.3697   28.1420  -75.5024 S.3       11 UNK        -0.2512 
     48 C48       -79.7966   29.9209  -75.4406 C.3       11 UNK         0.0225 
     49 N         -76.9333   25.7914  -75.5856 N.am      5 UNK        -0.4615 
     50 C         -76.1157   24.7800  -75.9166 C.2       4 UNK         0.5053 
     51 O         -75.1063   24.9220  -76.6065 O.2       4 UNK        -0.5105 
     52 CA        -76.4997   23.3676  -75.4546 C.3       4 UNK         0.0263 
     53 CB        -76.0595   23.1306  -74.0023 C.3       4 UNK        -0.1981 
     54 N         -77.9277   23.0846  -75.5904 N.am      4 UNK        -0.4224 
     55 C         -78.6140   23.0674  -76.7402 C.2       3 UNK         0.4895 
     56 O         -78.1070   23.2976  -77.8379 O.2       3 UNK        -0.5091 
     57 CA        -80.1221   22.7624  -76.6675 C.3       3 UNK         0.0250 
     58 CB        -80.3865   21.2445  -76.7093 C.3       3 UNK        -0.1996 
     59 N         -80.8192   23.4098  -75.5457 N.am      3 UNK        -0.4254 
     60 C         -80.6854   23.1878  -74.2303 C.2       2 UNK         0.5004 
     61 O         -79.9693   22.3125  -73.7385 O.2       2 UNK        -0.5226 
     62 CA        -81.4720   24.1327  -73.3086 C.3       2 UNK         0.0269 
     63 CB        -82.6947   23.4097  -72.7201 C.3       2 UNK        -0.1926 
     64 N         -80.6790   24.7059  -72.2141 N.am      2 UNK        -0.4687 
     65 C         -79.4800   25.3025  -72.3138 C.2       1 UNK         0.5165 
     66 O         -78.8037   25.3501  -73.3461 O.2       1 UNK        -0.5079 
     67 H67       -75.0601   26.0109  -70.3276 H         1 UNK         0.0900 
     68 H68       -74.9270   24.5583  -71.3234 H         1 UNK         0.0900 
     69 H69       -75.0453   24.4236  -69.5666 H         1 UNK         0.0900 
     70 H70       -77.0621   26.8726  -71.0060 H         1 UNK         0.2959 
     71 H71       -79.5109   25.6691  -70.1844 H         1 UNK         0.1079 
     72 H72       -78.9429   27.9779  -72.0954 H         1 UNK         0.0837 
     73 H73       -80.5466   27.5900  -71.5052 H         1 UNK         0.0837 
     74 H74       -80.0299   30.9200  -69.6315 H         1 UNK         0.0685 
     75 H75       -81.1568   29.9356  -70.5312 H         1 UNK         0.0685 
     76 H76       -80.8379   29.5380  -72.9570 H         1 UNK         0.1434 
     77 H77       -77.7746   31.7131  -75.0153 H         1 UNK         0.1329 
     78 H78       -78.0036   31.8708  -70.7376 H         1 UNK         0.1335 
     79 H79       -76.4829   33.3559  -71.9049 H         1 UNK         0.0680 
     80 H80       -76.7125   33.6235  -73.6146 H         1 UNK         0.0680 
     81 H81       -74.0237   31.7992  -71.0713 H         1 UNK         0.1032 
     82 H82       -75.5929   31.0630  -71.0295 H         1 UNK         0.1032 
     83 H83       -73.6061   29.5092  -70.7656 H         1 UNK         0.0461 
     84 H84       -74.1142   27.9369  -73.7412 H         1 UNK         0.3453 
     85 H85       -75.5136   27.0308  -73.2092 H         1 UNK         0.3453 
     86 H86       -72.9362   30.4441  -73.4267 H         1 UNK         0.2984 
     87 H87       -71.2003   29.8133  -74.5282 H         1 UNK         0.0554 
     88 H88       -68.7640   29.4423  -74.2354 H         1 UNK         0.0847 
     89 H89       -69.0491   28.5463  -72.7427 H         1 UNK         0.0847 
     90 H90       -69.4218   30.2615  -72.8289 H         1 UNK         0.0847 
     91 H91       -70.0378   27.1993  -74.5721 H         1 UNK         0.3141 
     92 H92       -70.7054   25.6979  -76.1135 H         1 UNK         0.0743 
     93 H93       -73.2552   24.9795  -74.5626 H         1 UNK         0.0784 
     94 H94       -72.1554   23.8056  -75.2862 H         1 UNK         0.0784 
     95 H95       -71.6071   24.8392  -73.9752 H         1 UNK         0.0784 
     96 H96       -73.4686   25.3271  -77.0097 H         1 UNK         0.3213 
     97 H97       -72.7138   26.5534  -80.3116 H         1 UNK         0.0855 
     98 H98       -73.1061   23.6622  -79.3732 H         1 UNK         0.0814 
     99 H99       -71.7241   24.2563  -80.2858 H         1 UNK         0.0814 
    100 H100      -73.3200   24.2604  -81.0181 H         1 UNK         0.0814 
    101 H101      -74.7948   25.7325  -78.3576 H         1 UNK         0.3105 
    102 H102      -77.1944   27.5948  -80.0938 H         1 UNK         0.0547 
    103 H103      -77.5432   25.5815  -81.4978 H         1 UNK         0.0837 
    104 H104      -77.2610   24.5295  -80.1192 H         1 UNK         0.0837 
    105 H105      -78.6774   25.5796  -80.1570 H         1 UNK         0.0837 
    106 H106      -77.3180   25.6812  -77.9150 H         1 UNK         0.3020 
    107 H107      -75.6669   27.4027  -75.6112 H         1 UNK         0.1245 
    108 H108      -77.2014   29.1863  -75.2333 H         1 UNK         0.0781 
    109 H109      -77.4840   27.9612  -74.0414 H         1 UNK         0.0781 
    110 H110      -80.8743   30.0350  -75.5648 H         1 UNK         0.0836 
    111 H111      -79.3340   30.4260  -76.2901 H         1 UNK         0.0836 
    112 H112      -77.7370   25.5996  -74.9920 H         1 UNK         0.3022 
    113 H113      -75.9650   22.6592  -76.0908 H         1 UNK         0.0747 
    114 H114      -76.2517   22.1033  -73.6924 H         1 UNK         0.0793 
    115 H115      -74.9909   23.3108  -73.8807 H         1 UNK         0.0793 
    116 H116      -76.5849   23.7898  -73.3117 H         1 UNK         0.0793 
    117 H117      -78.4446   22.8827  -74.7383 H         1 UNK         0.3047 
    118 H118      -80.5637   23.1915  -77.5686 H         1 UNK         0.0822 
    119 H119      -81.4547   21.0280  -76.7190 H         1 UNK         0.0807 
    120 H120      -79.9467   20.7267  -75.8566 H         1 UNK         0.0807 
    121 H121      -79.9580   20.8020  -77.6096 H         1 UNK         0.0807 
    122 H122      -81.4235   24.1713  -75.8237 H         1 UNK         0.2946 
    123 H123      -81.8290   24.9759  -73.9040 H         1 UNK         0.1144 
    124 H124      -83.3214   24.0893  -72.1423 H         1 UNK         0.0793 
    125 H125      -82.3985   22.5872  -72.0676 H         1 UNK         0.0793 
    126 H126      -83.3194   22.9895  -73.5098 H         1 UNK         0.0793 
    127 H127      -81.1361   24.7185  -71.3140 H         1 UNK         0.2896 
@<TRIPOS>BOND
     1    1    2 1    
     2    1   67 1    
     3    1   68 1    
     4    1   69 1    
     5    2    3 2    
     6    2    4 am   BACKBONE|DICT|INTERRES
     7    4    5 1    
     8    4   70 1    
     9    5    6 1    
    10    5   65 1    
    11    5   71 1    
    12    6    7 1    
    13    6   72 1    
    14    6   73 1    
    15    7    8 1    
    16    8    9 1    
    17    8   74 1    
    18    8   75 1    
    19    9   10 ar   
    20    9   14 ar   
    21   10   11 ar   
    22   10   76 1    
    23   11   12 ar   
    24   11   48 1    
    25   12   13 ar   
    26   12   77 1    
    27   13   14 ar   
    28   13   15 1    
    29   14   78 1    
    30   15   16 1    
    31   15   79 1    
    32   15   80 1    
    33   16   17 1    
    34   17   18 1    
    35   17   81 1    
    36   17   82 1    
    37   18   19 1    
    38   18   22 1    
    39   18   83 1    
    40   19   20 am   BACKBONE|DICT|INTERRES
    41   19   21 2    
    42   20   84 1    
    43   20   85 1    
    44   22   23 am   BACKBONE|DICT|INTERRES
    45   22   86 1    
    46   23   24 2    
    47   23   25 1    
    48   25   26 1    
    49   25   27 1    
    50   25   87 1    
    51   26   88 1    
    52   26   89 1    
    53   26   90 1    
    54   27   28 am   BACKBONE|DICT|INTERRES
    55   27   91 1    
    56   28   29 2    
    57   28   30 1    
    58   30   31 1    
    59   30   32 1    
    60   30   92 1    
    61   31   93 1    
    62   31   94 1    
    63   31   95 1    
    64   32   33 am   BACKBONE|DICT|INTERRES
    65   32   96 1    
    66   33   34 2    
    67   33   35 1    
    68   35   36 1    
    69   35   37 1    
    70   35   97 1    
    71   36   98 1    
    72   36   99 1    
    73   36  100 1    
    74   37   38 am   BACKBONE|DICT|INTERRES
    75   37  101 1    
    76   38   39 2    
    77   38   40 1    
    78   40   41 1    
    79   40   42 1    
    80   40  102 1    
    81   41  103 1    
    82   41  104 1    
    83   41  105 1    
    84   42   43 am   BACKBONE|DICT|INTERRES
    85   42  106 1    
    86   43   44 2    
    87   43   45 1    
    88   45   46 1    
    89   45   49 1    
    90   45  107 1    
    91   46   47 1    
    92   46  108 1    
    93   46  109 1    
    94   47   48 1    
    95   48  110 1    
    96   48  111 1    
    97   49   50 am   BACKBONE|DICT|INTERRES
    98   49  112 1    
    99   50   51 2    
   100   50   52 1    
   101   52   53 1    
   102   52   54 1    
   103   52  113 1    
   104   53  114 1    
   105   53  115 1    
   106   53  116 1    
   107   54   55 am   BACKBONE|DICT|INTERRES
   108   54  117 1    
   109   55   56 2    
   110   55   57 1    
   111   57   58 1    
   112   57   59 1    
   113   57  118 1    
   114   58  119 1    
   115   58  120 1    
   116   58  121 1    
   117   59   60 am   BACKBONE|DICT|INTERRES
   118   59  122 1    
   119   60   61 2    
   120   60   62 1    
   121   62   63 1    
   122   62   64 1    
   123   62  123 1    
   124   63  124 1    
   125   63  125 1    
   126   63  126 1    
   127   64   65 am   BACKBONE|DICT|INTERRES
   128   64  127 1    
   129   65   66 2    
@<TRIPOS>SUBSTRUCTURE
     1 UNK         1 GROUP             0       ****    0 ROOT    
