@<TRIPOS>MOLECULE
3R135
127   129    1
SMALL
USER_CHARGES


@<TRIPOS>ATOM
      1 CA        -82.8355   23.6286  -69.7963 C.3       0 UNK        -0.1998 
      2 C         -82.8820   24.4220  -71.0935 C.2       0 UNK         0.4909 
      3 O         -83.7119   24.1361  -71.9577 O.2       0 UNK        -0.5240 
      4 N         -82.0045   25.4232  -71.2306 N.am      1 UNK        -0.4739 
      5 CA        -81.8362   26.2416  -72.4355 C.3       1 UNK         0.0864 
      6 C6        -81.0696   27.5643  -72.1606 C.3       11 UNK        -0.0881 
      7 S7        -79.6854   27.4316  -70.9705 S.3       11 UNK        -0.2682 
      8 C8        -79.6061   29.1230  -70.2984 C.3       11 UNK         0.0289 
      9 C9        -78.6964   30.0139  -71.1318 C.ar      11 UNK        -0.0687 
     10 C10       -79.0953   30.4413  -72.4010 C.ar      11 UNK        -0.0823 
     11 C11       -78.2484   31.2262  -73.1875 C.ar      11 UNK        -0.0830 
     12 C12       -77.0169   31.6369  -72.6708 C.ar      11 UNK        -0.1021 
     13 C13       -76.6151   31.2356  -71.3929 C.ar      11 UNK        -0.0753 
     14 C14       -77.4528   30.4135  -70.6332 C.ar      11 UNK        -0.0933 
     15 C15       -75.2801   31.6991  -70.8307 C.3       11 UNK         0.0166 
     16 S16       -73.8750   30.9775  -71.7293 S.3       11 UNK        -0.2615 
     17 C17       -74.0136   29.2144  -71.2745 C.3       11 UNK        -0.0865 
     18 CA        -72.8057   28.3857  -71.7921 C.3       10 UNK         0.0862 
     19 C         -72.7494   26.9491  -71.1964 C.2       10 UNK         0.5551 
     20 N         -72.2445   25.9577  -71.9221 N.am      10 UNK        -0.7319 
     21 O         -73.1415   26.7286  -70.0530 O.2       10 UNK        -0.5018 
     22 N         -72.7565   28.3755  -73.2621 N.am      10 UNK        -0.4509 
     23 C         -71.8680   29.0275  -74.0193 C.2       10 UNK         0.4899 
     24 O         -70.9585   29.7260  -73.5666 O.2       10 UNK        -0.4839 
     25 CA        -72.0233   28.8624  -75.5449 C.3       9 UNK         0.0222 
     26 CB        -70.8379   29.4556  -76.3355 C.3       9 UNK        -0.1966 
     27 N         -72.2679   27.4782  -75.9707 N.am      9 UNK        -0.4218 
     28 C         -71.5121   26.4016  -75.6960 C.2       9 UNK         0.5020 
     29 O         -70.5275   26.4173  -74.9560 O.2       9 UNK        -0.5274 
     30 CA        -71.9125   25.0695  -76.3512 C.3       8 UNK         0.0270 
     31 CB        -72.7860   24.2470  -75.3951 C.3       8 UNK        -0.1976 
     32 N         -72.5990   25.2266  -77.6363 N.am      8 UNK        -0.4313 
     33 C         -72.0206   25.6508  -78.7673 C.2       8 UNK         0.5041 
     34 O         -70.8297   25.9548  -78.8471 O.2       8 UNK        -0.5577 
     35 CA        -72.8993   25.7632  -80.0284 C.3       7 UNK         0.0284 
     36 CB        -73.0055   24.4055  -80.7512 C.3       7 UNK        -0.1958 
     37 N         -74.2236   26.3675  -79.8134 N.am      7 UNK        -0.4454 
     38 C         -75.2567   25.8919  -79.1064 C.2       7 UNK         0.5089 
     39 O         -75.2467   24.8198  -78.5017 O.2       7 UNK        -0.5125 
     40 CA        -76.5110   26.7747  -79.0549 C.3       6 UNK         0.0408 
     41 CB        -77.6969   26.0806  -79.7437 C.3       6 UNK        -0.1791 
     42 N         -76.8809   27.1068  -77.6803 N.am      6 UNK        -0.4762 
     43 C         -76.1559   27.8602  -76.8404 C.2       6 UNK         0.5007 
     44 O         -75.0403   28.3095  -77.1077 O.2       6 UNK        -0.5032 
     45 CA        -76.7877   28.1387  -75.4650 C.3       5 UNK         0.0783 
     46 C46       -78.0754   28.9969  -75.5779 C.3       11 UNK        -0.0857 
     47 S47       -77.6937   30.7597  -75.8769 S.3       11 UNK        -0.2512 
     48 C48       -78.6654   31.6227  -74.5964 C.3       11 UNK         0.0225 
     49 N         -77.0375   26.8646  -74.7938 N.am      5 UNK        -0.4615 
     50 C         -76.1350   26.2241  -74.0398 C.2       4 UNK         0.5053 
     51 O         -75.0251   26.6854  -73.7756 O.2       4 UNK        -0.5105 
     52 CA        -76.5165   24.8301  -73.5078 C.3       4 UNK         0.0263 
     53 CB        -77.1326   24.9267  -72.1066 C.3       4 UNK        -0.1981 
     54 N         -77.4412   24.1299  -74.4041 N.am      4 UNK        -0.4224 
     55 C         -77.0461   23.5246  -75.5338 C.2       3 UNK         0.4895 
     56 O         -75.8648   23.3362  -75.8158 O.2       3 UNK        -0.5091 
     57 CA        -78.1187   23.0365  -76.5257 C.3       3 UNK         0.0250 
     58 CB        -78.1586   21.4994  -76.5637 C.3       3 UNK        -0.1996 
     59 N         -79.4752   23.5357  -76.2876 N.am      3 UNK        -0.4254 
     60 C         -79.8780   24.8128  -76.3329 C.2       2 UNK         0.5004 
     61 O         -79.1246   25.7670  -76.5302 O.2       2 UNK        -0.5226 
     62 CA        -81.3749   25.0797  -76.0910 C.3       2 UNK         0.0269 
     63 CB        -82.2603   23.8150  -76.1790 C.3       2 UNK        -0.1926 
     64 N         -81.6376   25.7764  -74.8256 N.am      2 UNK        -0.4687 
     65 C         -81.2196   25.4315  -73.5968 C.2       1 UNK         0.5165 
     66 O         -80.4071   24.5306  -73.3659 O.2       1 UNK        -0.5079 
     67 H67       -82.6277   22.5797  -70.0060 H         1 UNK         0.0900 
     68 H68       -83.7948   23.6909  -69.2832 H         1 UNK         0.0900 
     69 H69       -82.0645   23.9983  -69.1204 H         1 UNK         0.0900 
     70 H70       -81.3239   25.6005  -70.5047 H         1 UNK         0.2959 
     71 H71       -82.8426   26.5197  -72.7585 H         1 UNK         0.1079 
     72 H72       -80.6961   27.9981  -73.0896 H         1 UNK         0.0837 
     73 H73       -81.7812   28.2910  -71.7664 H         1 UNK         0.0837 
     74 H74       -80.6029   29.5609  -70.2343 H         1 UNK         0.0685 
     75 H75       -79.2387   29.0645  -69.2727 H         1 UNK         0.0685 
     76 H76       -80.0594   30.1457  -72.7872 H         1 UNK         0.1434 
     77 H77       -76.3620   32.2554  -73.2697 H         1 UNK         0.1329 
     78 H78       -77.1397   30.0908  -69.6497 H         1 UNK         0.1335 
     79 H79       -75.2223   32.7861  -70.9030 H         1 UNK         0.0680 
     80 H80       -75.1933   31.4578  -69.7700 H         1 UNK         0.0680 
     81 H81       -74.0869   29.1555  -70.1871 H         1 UNK         0.1032 
     82 H82       -74.9482   28.8117  -71.6701 H         1 UNK         0.1032 
     83 H83       -71.9023   28.8597  -71.4051 H         1 UNK         0.0461 
     84 H84       -72.2004   25.0308  -71.5305 H         1 UNK         0.3453 
     85 H85       -71.8760   26.1418  -72.8428 H         1 UNK         0.3453 
     86 H86       -73.4659   27.7910  -73.6986 H         1 UNK         0.2984 
     87 H87       -72.9146   29.4288  -75.8175 H         1 UNK         0.0554 
     88 H88       -70.9928   29.3635  -77.4105 H         1 UNK         0.0847 
     89 H89       -69.8997   28.9573  -76.0887 H         1 UNK         0.0847 
     90 H90       -70.7116   30.5167  -76.1172 H         1 UNK         0.0847 
     91 H91       -73.0888   27.3510  -76.5508 H         1 UNK         0.3141 
     92 H92       -70.9937   24.5081  -76.5338 H         1 UNK         0.0743 
     93 H93       -72.2751   24.0703  -74.4479 H         1 UNK         0.0784 
     94 H94       -73.7198   24.7607  -75.1708 H         1 UNK         0.0784 
     95 H95       -73.0326   23.2729  -75.8178 H         1 UNK         0.0784 
     96 H96       -73.5846   24.9713  -77.6830 H         1 UNK         0.3213 
     97 H97       -72.3785   26.4453  -80.7028 H         1 UNK         0.0855 
     98 H98       -73.5001   23.6513  -80.1384 H         1 UNK         0.0814 
     99 H99       -72.0155   24.0200  -80.9986 H         1 UNK         0.0814 
    100 H100      -73.5603   24.4954  -81.6851 H         1 UNK         0.0814 
    101 H101      -74.3376   27.2822  -80.2291 H         1 UNK         0.3105 
    102 H102      -76.3129   27.7108  -79.5812 H         1 UNK         0.0547 
    103 H103      -78.5792   26.7206  -79.7561 H         1 UNK         0.0837 
    104 H104      -77.4586   25.8353  -80.7794 H         1 UNK         0.0837 
    105 H105      -77.9666   25.1507  -79.2420 H         1 UNK         0.0837 
    106 H106      -77.7487   26.7004  -77.3360 H         1 UNK         0.3020 
    107 H107      -76.0617   28.7044  -74.8749 H         1 UNK         0.1245 
    108 H108      -78.6499   28.9097  -74.6564 H         1 UNK         0.0781 
    109 H109      -78.7410   28.6365  -76.3645 H         1 UNK         0.0781 
    110 H110      -78.5346   32.6987  -74.7197 H         1 UNK         0.0836 
    111 H111      -79.7259   31.4249  -74.7608 H         1 UNK         0.0836 
    112 H112      -77.8922   26.3861  -75.0542 H         1 UNK         0.3022 
    113 H113      -75.5937   24.2520  -73.4226 H         1 UNK         0.0747 
    114 H114      -77.2686   23.9394  -71.6655 H         1 UNK         0.0793 
    115 H115      -78.1054   25.4130  -72.1367 H         1 UNK         0.0793 
    116 H116      -76.4951   25.5015  -71.4329 H         1 UNK         0.0793 
    117 H117      -78.4328   24.2111  -74.2048 H         1 UNK         0.3047 
    118 H118      -77.8098   23.3930  -77.5105 H         1 UNK         0.0822 
    119 H119      -77.1725   21.0872  -76.7828 H         1 UNK         0.0807 
    120 H120      -78.8355   21.1374  -77.3378 H         1 UNK         0.0807 
    121 H121      -78.4815   21.0814  -75.6094 H         1 UNK         0.0807 
    122 H122      -80.1723   22.8371  -76.0743 H         1 UNK         0.2946 
    123 H123      -81.6848   25.7539  -76.8915 H         1 UNK         0.1144 
    124 H124      -82.1143   23.2907  -77.1247 H         1 UNK         0.0793 
    125 H125      -83.3171   24.0776  -76.1257 H         1 UNK         0.0793 
    126 H126      -82.0608   23.1123  -75.3688 H         1 UNK         0.0793 
    127 H127      -82.2608   26.5683  -74.9044 H         1 UNK         0.2896 
@<TRIPOS>BOND
     1    1    2 1    
     2    1   67 1    
     3    1   68 1    
     4    1   69 1    
     5    2    3 2    
     6    2    4 am   BACKBONE|DICT|INTERRES
     7    4    5 1    
     8    4   70 1    
     9    5    6 1    
    10    5   65 1    
    11    5   71 1    
    12    6    7 1    
    13    6   72 1    
    14    6   73 1    
    15    7    8 1    
    16    8    9 1    
    17    8   74 1    
    18    8   75 1    
    19    9   10 ar   
    20    9   14 ar   
    21   10   11 ar   
    22   10   76 1    
    23   11   12 ar   
    24   11   48 1    
    25   12   13 ar   
    26   12   77 1    
    27   13   14 ar   
    28   13   15 1    
    29   14   78 1    
    30   15   16 1    
    31   15   79 1    
    32   15   80 1    
    33   16   17 1    
    34   17   18 1    
    35   17   81 1    
    36   17   82 1    
    37   18   19 1    
    38   18   22 1    
    39   18   83 1    
    40   19   20 am   BACKBONE|DICT|INTERRES
    41   19   21 2    
    42   20   84 1    
    43   20   85 1    
    44   22   23 am   BACKBONE|DICT|INTERRES
    45   22   86 1    
    46   23   24 2    
    47   23   25 1    
    48   25   26 1    
    49   25   27 1    
    50   25   87 1    
    51   26   88 1    
    52   26   89 1    
    53   26   90 1    
    54   27   28 am   BACKBONE|DICT|INTERRES
    55   27   91 1    
    56   28   29 2    
    57   28   30 1    
    58   30   31 1    
    59   30   32 1    
    60   30   92 1    
    61   31   93 1    
    62   31   94 1    
    63   31   95 1    
    64   32   33 am   BACKBONE|DICT|INTERRES
    65   32   96 1    
    66   33   34 2    
    67   33   35 1    
    68   35   36 1    
    69   35   37 1    
    70   35   97 1    
    71   36   98 1    
    72   36   99 1    
    73   36  100 1    
    74   37   38 am   BACKBONE|DICT|INTERRES
    75   37  101 1    
    76   38   39 2    
    77   38   40 1    
    78   40   41 1    
    79   40   42 1    
    80   40  102 1    
    81   41  103 1    
    82   41  104 1    
    83   41  105 1    
    84   42   43 am   BACKBONE|DICT|INTERRES
    85   42  106 1    
    86   43   44 2    
    87   43   45 1    
    88   45   46 1    
    89   45   49 1    
    90   45  107 1    
    91   46   47 1    
    92   46  108 1    
    93   46  109 1    
    94   47   48 1    
    95   48  110 1    
    96   48  111 1    
    97   49   50 am   BACKBONE|DICT|INTERRES
    98   49  112 1    
    99   50   51 2    
   100   50   52 1    
   101   52   53 1    
   102   52   54 1    
   103   52  113 1    
   104   53  114 1    
   105   53  115 1    
   106   53  116 1    
   107   54   55 am   BACKBONE|DICT|INTERRES
   108   54  117 1    
   109   55   56 2    
   110   55   57 1    
   111   57   58 1    
   112   57   59 1    
   113   57  118 1    
   114   58  119 1    
   115   58  120 1    
   116   58  121 1    
   117   59   60 am   BACKBONE|DICT|INTERRES
   118   59  122 1    
   119   60   61 2    
   120   60   62 1    
   121   62   63 1    
   122   62   64 1    
   123   62  123 1    
   124   63  124 1    
   125   63  125 1    
   126   63  126 1    
   127   64   65 am   BACKBONE|DICT|INTERRES
   128   64  127 1    
   129   65   66 2    
@<TRIPOS>SUBSTRUCTURE
     1 UNK         1 GROUP             0       ****    0 ROOT    
