@<TRIPOS>MOLECULE
3R135
127   129    1
SMALL
USER_CHARGES


@<TRIPOS>ATOM
      1 CA        -82.5199   27.9333  -70.1696 C.3       0 UNK        -0.1998 
      2 C         -83.1149   27.9246  -71.5697 C.2       0 UNK         0.4909 
      3 O         -84.2515   27.4880  -71.7514 O.2       0 UNK        -0.5240 
      4 N         -82.3526   28.4029  -72.5620 N.am      1 UNK        -0.4739 
      5 CA        -82.7401   28.4520  -73.9783 C.3       1 UNK         0.0864 
      6 C6        -81.9025   29.4979  -74.7621 C.3       11 UNK        -0.0881 
      7 S7        -80.1254   29.0955  -74.8936 S.3       11 UNK        -0.2682 
      8 C8        -79.4159   29.9869  -73.4750 C.3       11 UNK         0.0289 
      9 C9        -78.2659   29.1882  -72.8847 C.ar      11 UNK        -0.0687 
     10 C10       -78.5300   28.0932  -72.0562 C.ar      11 UNK        -0.0823 
     11 C11       -77.4863   27.3143  -71.5517 C.ar      11 UNK        -0.0830 
     12 C12       -76.1673   27.6465  -71.8683 C.ar      11 UNK        -0.1021 
     13 C13       -75.8919   28.7315  -72.7051 C.ar      11 UNK        -0.0753 
     14 C14       -76.9428   29.5089  -73.2008 C.ar      11 UNK        -0.0933 
     15 C15       -74.4653   28.9926  -73.1514 C.3       11 UNK         0.0166 
     16 S16       -73.4576   29.7742  -71.8531 S.3       11 UNK        -0.2615 
     17 C17       -73.4227   31.5143  -72.4145 C.3       11 UNK        -0.0865 
     18 CA        -72.2154   31.8429  -73.3368 C.3       10 UNK         0.0862 
     19 C         -70.8636   31.8928  -72.5625 C.2       10 UNK         0.5551 
     20 N         -69.8657   31.0817  -72.8974 N.am      10 UNK        -0.7319 
     21 O         -70.7144   32.6989  -71.6473 O.2       10 UNK        -0.5018 
     22 N         -72.2098   30.9729  -74.5192 N.am      10 UNK        -0.4509 
     23 C         -71.6494   31.2479  -75.7000 C.2       10 UNK         0.4899 
     24 O         -71.1322   32.3309  -75.9773 O.2       10 UNK        -0.4839 
     25 CA        -71.6864   30.1129  -76.7444 C.3       9 UNK         0.0222 
     26 CB        -70.5663   30.2440  -77.7978 C.3       9 UNK        -0.1966 
     27 N         -71.6926   28.7580  -76.1678 N.am      9 UNK        -0.4218 
     28 C         -70.7530   28.2069  -75.3776 C.2       9 UNK         0.5020 
     29 O         -69.7919   28.8355  -74.9309 O.2       9 UNK        -0.5274 
     30 CA        -70.8947   26.7149  -75.0035 C.3       8 UNK         0.0270 
     31 CB        -71.1102   26.5399  -73.4907 C.3       8 UNK        -0.1976 
     32 N         -71.9575   26.0145  -75.7327 N.am      8 UNK        -0.4313 
     33 C         -71.8907   25.6806  -77.0319 C.2       8 UNK         0.5041 
     34 O         -70.8799   25.8344  -77.7185 O.2       8 UNK        -0.5577 
     35 CA        -73.1597   25.1142  -77.7011 C.3       7 UNK         0.0284 
     36 CB        -73.0331   23.5937  -77.8860 C.3       7 UNK        -0.1958 
     37 N         -74.4087   25.4081  -76.9913 N.am      7 UNK        -0.4454 
     38 C         -74.8855   26.6319  -76.7145 C.2       7 UNK         0.5089 
     39 O         -74.3332   27.6741  -77.0698 O.2       7 UNK        -0.5125 
     40 CA        -76.1538   26.7142  -75.8427 C.3       6 UNK         0.0408 
     41 CB        -77.3916   26.9112  -76.7291 C.3       6 UNK        -0.1791 
     42 N         -76.3751   25.5624  -74.9584 N.am      6 UNK        -0.4762 
     43 C         -75.4958   25.0480  -74.0813 C.2       6 UNK         0.5007 
     44 O         -74.3699   25.5115  -73.8904 O.2       6 UNK        -0.5032 
     45 CA        -75.8963   23.7417  -73.3645 C.3       5 UNK         0.0783 
     46 C46       -76.3530   23.9702  -71.9015 C.3       11 UNK        -0.0857 
     47 S47       -78.0543   24.6129  -71.7130 S.3       11 UNK        -0.2512 
     48 C48       -77.7954   26.0997  -70.6919 C.3       11 UNK         0.0225 
     49 N         -76.8462   22.9312  -74.1379 N.am      5 UNK        -0.4615 
     50 C         -76.5560   22.3343  -75.3031 C.2       4 UNK         0.5053 
     51 O         -75.4551   22.4005  -75.8490 O.2       4 UNK        -0.5105 
     52 CA        -77.6997   21.6022  -76.0066 C.3       4 UNK         0.0263 
     53 CB        -78.3858   20.5608  -75.1028 C.3       4 UNK        -0.1981 
     54 N         -78.6639   22.5987  -76.4551 N.am      4 UNK        -0.4224 
     55 C         -79.3210   22.6015  -77.6172 C.2       3 UNK         0.4895 
     56 O         -79.2292   21.7047  -78.4576 O.2       3 UNK        -0.5091 
     57 CA        -80.2434   23.8150  -77.8679 C.3       3 UNK         0.0250 
     58 CB        -81.0460   23.6899  -79.1768 C.3       3 UNK        -0.1996 
     59 N         -81.1765   24.0588  -76.7613 N.am      3 UNK        -0.4254 
     60 C         -80.8605   24.5908  -75.5733 C.2       2 UNK         0.5004 
     61 O         -79.7150   24.9260  -75.2568 O.2       2 UNK        -0.5226 
     62 CA        -81.9937   24.6986  -74.5454 C.3       2 UNK         0.0269 
     63 CB        -81.7458   23.7419  -73.3675 C.3       2 UNK        -0.1926 
     64 N         -82.0979   26.0647  -74.0406 N.am      2 UNK        -0.4687 
     65 C         -82.7441   27.0624  -74.6615 C.2       1 UNK         0.5165 
     66 O         -83.3466   26.9174  -75.7269 O.2       1 UNK        -0.5079 
     67 H67       -82.4120   26.9131  -69.8020 H         1 UNK         0.0900 
     68 H68       -81.5402   28.4098  -70.1433 H         1 UNK         0.0900 
     69 H69       -83.1758   28.4734  -69.4872 H         1 UNK         0.0900 
     70 H70       -81.4327   28.7605  -72.3570 H         1 UNK         0.2959 
     71 H71       -83.7777   28.7928  -74.0116 H         1 UNK         0.1079 
     72 H72       -82.0172   30.4844  -74.3101 H         1 UNK         0.0837 
     73 H73       -82.2954   29.6006  -75.7754 H         1 UNK         0.0837 
     74 H74       -80.1692   30.1617  -72.7067 H         1 UNK         0.0685 
     75 H75       -79.0792   30.9717  -73.8027 H         1 UNK         0.0685 
     76 H76       -79.5502   27.8230  -71.8278 H         1 UNK         0.1434 
     77 H77       -75.3527   27.0379  -71.5006 H         1 UNK         0.1329 
     78 H78       -76.7351   30.3367  -73.8647 H         1 UNK         0.1335 
     79 H79       -74.4636   29.5912  -74.0625 H         1 UNK         0.0680 
     80 H80       -74.0073   28.0448  -73.4264 H         1 UNK         0.0680 
     81 H81       -73.4189   32.1610  -71.5350 H         1 UNK         0.1032 
     82 H82       -74.3567   31.7427  -72.9304 H         1 UNK         0.1032 
     83 H83       -72.3707   32.8621  -73.6957 H         1 UNK         0.0461 
     84 H84       -68.9984   31.1350  -72.3881 H         1 UNK         0.3453 
     85 H85       -69.9653   30.4088  -73.6495 H         1 UNK         0.3453 
     86 H86       -72.5649   30.0414  -74.3699 H         1 UNK         0.2984 
     87 H87       -72.6394   30.2178  -77.2648 H         1 UNK         0.0554 
     88 H88       -70.6409   31.1892  -78.3367 H         1 UNK         0.0847 
     89 H89       -70.6231   29.4461  -78.5383 H         1 UNK         0.0847 
     90 H90       -69.5766   30.2074  -77.3410 H         1 UNK         0.0847 
     91 H91       -72.4763   28.1789  -76.4562 H         1 UNK         0.3141 
     92 H92       -69.9450   26.2395  -75.2576 H         1 UNK         0.0743 
     93 H93       -70.3019   27.0037  -72.9235 H         1 UNK         0.0784 
     94 H94       -72.0411   26.9926  -73.1544 H         1 UNK         0.0784 
     95 H95       -71.1344   25.4858  -73.2137 H         1 UNK         0.0784 
     96 H96       -72.8183   25.8358  -75.2232 H         1 UNK         0.3213 
     97 H97       -73.2328   25.5750  -78.6884 H         1 UNK         0.0855 
     98 H98       -72.9614   23.0769  -76.9280 H         1 UNK         0.0814 
     99 H99       -72.1400   23.3421  -78.4598 H         1 UNK         0.0814 
    100 H100      -73.8885   23.1843  -78.4239 H         1 UNK         0.0814 
    101 H101      -74.9151   24.6102  -76.6290 H         1 UNK         0.3105 
    102 H102      -76.0506   27.5940  -75.2094 H         1 UNK         0.0547 
    103 H103      -77.5669   26.0502  -77.3744 H         1 UNK         0.0837 
    104 H104      -77.2795   27.7863  -77.3706 H         1 UNK         0.0837 
    105 H105      -78.2865   27.0677  -76.1274 H         1 UNK         0.0837 
    106 H106      -77.2946   25.1430  -75.0000 H         1 UNK         0.3020 
    107 H107      -74.9723   23.1604  -73.3098 H         1 UNK         0.1245 
    108 H108      -75.6438   24.6137  -71.3784 H         1 UNK         0.0781 
    109 H109      -76.3160   23.0185  -71.3693 H         1 UNK         0.0781 
    110 H110      -77.0030   25.9287  -69.9617 H         1 UNK         0.0836 
    111 H111      -78.7005   26.2834  -70.1109 H         1 UNK         0.0836 
    112 H112      -77.7751   22.8539  -73.7492 H         1 UNK         0.3022 
    113 H113      -77.2722   21.0852  -76.8687 H         1 UNK         0.0747 
    114 H114      -79.1184   19.9809  -75.6645 H         1 UNK         0.0793 
    115 H115      -77.6589   19.8561  -74.6965 H         1 UNK         0.0793 
    116 H116      -78.9060   21.0208  -74.2620 H         1 UNK         0.0793 
    117 H117      -78.8168   23.3994  -75.8459 H         1 UNK         0.3047 
    118 H118      -79.5949   24.6883  -77.9638 H         1 UNK         0.0822 
    119 H119      -81.6464   24.5810  -79.3612 H         1 UNK         0.0807 
    120 H120      -81.7166   22.8299  -79.1588 H         1 UNK         0.0807 
    121 H121      -80.3819   23.5684  -80.0338 H         1 UNK         0.0807 
    122 H122      -82.1324   23.7751  -76.9225 H         1 UNK         0.2946 
    123 H123      -82.9396   24.4211  -75.0167 H         1 UNK         0.1144 
    124 H124      -82.5619   23.7823  -72.6458 H         1 UNK         0.0793 
    125 H125      -80.8214   23.9799  -72.8403 H         1 UNK         0.0793 
    126 H126      -81.6678   22.7097  -73.7117 H         1 UNK         0.0793 
    127 H127      -81.5861   26.2786  -73.1981 H         1 UNK         0.2896 
@<TRIPOS>BOND
     1    1    2 1    
     2    1   67 1    
     3    1   68 1    
     4    1   69 1    
     5    2    3 2    
     6    2    4 am   BACKBONE|DICT|INTERRES
     7    4    5 1    
     8    4   70 1    
     9    5    6 1    
    10    5   65 1    
    11    5   71 1    
    12    6    7 1    
    13    6   72 1    
    14    6   73 1    
    15    7    8 1    
    16    8    9 1    
    17    8   74 1    
    18    8   75 1    
    19    9   10 ar   
    20    9   14 ar   
    21   10   11 ar   
    22   10   76 1    
    23   11   12 ar   
    24   11   48 1    
    25   12   13 ar   
    26   12   77 1    
    27   13   14 ar   
    28   13   15 1    
    29   14   78 1    
    30   15   16 1    
    31   15   79 1    
    32   15   80 1    
    33   16   17 1    
    34   17   18 1    
    35   17   81 1    
    36   17   82 1    
    37   18   19 1    
    38   18   22 1    
    39   18   83 1    
    40   19   20 am   BACKBONE|DICT|INTERRES
    41   19   21 2    
    42   20   84 1    
    43   20   85 1    
    44   22   23 am   BACKBONE|DICT|INTERRES
    45   22   86 1    
    46   23   24 2    
    47   23   25 1    
    48   25   26 1    
    49   25   27 1    
    50   25   87 1    
    51   26   88 1    
    52   26   89 1    
    53   26   90 1    
    54   27   28 am   BACKBONE|DICT|INTERRES
    55   27   91 1    
    56   28   29 2    
    57   28   30 1    
    58   30   31 1    
    59   30   32 1    
    60   30   92 1    
    61   31   93 1    
    62   31   94 1    
    63   31   95 1    
    64   32   33 am   BACKBONE|DICT|INTERRES
    65   32   96 1    
    66   33   34 2    
    67   33   35 1    
    68   35   36 1    
    69   35   37 1    
    70   35   97 1    
    71   36   98 1    
    72   36   99 1    
    73   36  100 1    
    74   37   38 am   BACKBONE|DICT|INTERRES
    75   37  101 1    
    76   38   39 2    
    77   38   40 1    
    78   40   41 1    
    79   40   42 1    
    80   40  102 1    
    81   41  103 1    
    82   41  104 1    
    83   41  105 1    
    84   42   43 am   BACKBONE|DICT|INTERRES
    85   42  106 1    
    86   43   44 2    
    87   43   45 1    
    88   45   46 1    
    89   45   49 1    
    90   45  107 1    
    91   46   47 1    
    92   46  108 1    
    93   46  109 1    
    94   47   48 1    
    95   48  110 1    
    96   48  111 1    
    97   49   50 am   BACKBONE|DICT|INTERRES
    98   49  112 1    
    99   50   51 2    
   100   50   52 1    
   101   52   53 1    
   102   52   54 1    
   103   52  113 1    
   104   53  114 1    
   105   53  115 1    
   106   53  116 1    
   107   54   55 am   BACKBONE|DICT|INTERRES
   108   54  117 1    
   109   55   56 2    
   110   55   57 1    
   111   57   58 1    
   112   57   59 1    
   113   57  118 1    
   114   58  119 1    
   115   58  120 1    
   116   58  121 1    
   117   59   60 am   BACKBONE|DICT|INTERRES
   118   59  122 1    
   119   60   61 2    
   120   60   62 1    
   121   62   63 1    
   122   62   64 1    
   123   62  123 1    
   124   63  124 1    
   125   63  125 1    
   126   63  126 1    
   127   64   65 am   BACKBONE|DICT|INTERRES
   128   64  127 1    
   129   65   66 2    
@<TRIPOS>SUBSTRUCTURE
     1 UNK         1 GROUP             0       ****    0 ROOT    
