@<TRIPOS>MOLECULE
3R135
127   129    1
SMALL
USER_CHARGES


@<TRIPOS>ATOM
      1 CA        -84.5230   25.6606  -75.9385 C.3       0 UNK        -0.1998 
      2 C         -83.4076   26.5805  -75.4655 C.2       0 UNK         0.4909 
      3 O         -82.7398   27.2034  -76.2914 O.2       0 UNK        -0.5240 
      4 N         -83.2036   26.6671  -74.1429 N.am      1 UNK        -0.4739 
      5 CA        -82.1730   27.4707  -73.4716 C.3       1 UNK         0.0864 
      6 C6        -82.3379   27.3877  -71.9254 C.3       11 UNK        -0.0881 
      7 S7        -81.7875   28.7932  -70.8781 S.3       11 UNK        -0.2682 
      8 C8        -80.5492   29.7736  -71.8051 C.3       11 UNK         0.0289 
      9 C9        -79.1212   29.2193  -71.8442 C.ar      11 UNK        -0.0687 
     10 C10       -78.7932   27.9143  -71.4528 C.ar      11 UNK        -0.0823 
     11 C11       -77.4964   27.4144  -71.6049 C.ar      11 UNK        -0.0830 
     12 C12       -76.5010   28.2616  -72.1076 C.ar      11 UNK        -0.1021 
     13 C13       -76.8000   29.5746  -72.4789 C.ar      11 UNK        -0.0753 
     14 C14       -78.1095   30.0434  -72.3465 C.ar      11 UNK        -0.0933 
     15 C15       -75.7254   30.4708  -73.0778 C.3       11 UNK         0.0166 
     16 S16       -74.7881   31.3716  -71.8029 S.3       11 UNK        -0.2615 
     17 C17       -73.5091   30.1536  -71.3321 C.3       11 UNK        -0.0865 
     18 CA        -72.0961   30.5357  -71.8428 C.3       10 UNK         0.0862 
     19 C         -71.0338   29.5481  -71.2862 C.2       10 UNK         0.5551 
     20 N         -70.4520   29.8497  -70.1337 N.am      10 UNK        -0.7319 
     21 O         -70.7686   28.4959  -71.8647 O.2       10 UNK        -0.5018 
     22 N         -72.0578   30.6288  -73.3093 N.am      10 UNK        -0.4509 
     23 C         -71.0483   31.1299  -74.0279 C.2       10 UNK         0.4899 
     24 O         -70.0370   31.6320  -73.5338 O.2       10 UNK        -0.4839 
     25 CA        -71.2025   31.0468  -75.5593 C.3       9 UNK         0.0222 
     26 CB        -70.1124   31.8380  -76.3071 C.3       9 UNK        -0.1966 
     27 N         -71.1942   29.6607  -76.0359 N.am      9 UNK        -0.4218 
     28 C         -72.2221   28.8070  -75.9525 C.2       9 UNK         0.5020 
     29 O         -73.3039   29.0863  -75.4285 O.2       9 UNK        -0.5274 
     30 CA        -71.9871   27.3952  -76.5166 C.3       8 UNK         0.0270 
     31 CB        -71.4393   26.4709  -75.4178 C.3       8 UNK        -0.1976 
     32 N         -73.2201   26.8231  -77.0649 N.am      8 UNK        -0.4313 
     33 C         -73.8433   27.2821  -78.1615 C.2       8 UNK         0.5041 
     34 O         -73.3696   28.1577  -78.8895 O.2       8 UNK        -0.5577 
     35 CA        -75.2301   26.6923  -78.4933 C.3       7 UNK         0.0284 
     36 CB        -75.5867   26.7876  -79.9924 C.3       7 UNK        -0.1958 
     37 N         -75.4381   25.3328  -77.9851 N.am      7 UNK        -0.4454 
     38 C         -74.7819   24.2173  -78.3382 C.2       7 UNK         0.5089 
     39 O         -73.9074   24.1801  -79.2053 O.2       7 UNK        -0.5125 
     40 CA        -75.1681   22.9275  -77.5823 C.3       6 UNK         0.0408 
     41 CB        -74.0613   21.8535  -77.6373 C.3       6 UNK        -0.1791 
     42 N         -75.5908   23.1583  -76.1937 N.am      6 UNK        -0.4762 
     43 C         -74.8793   23.7433  -75.2133 C.2       6 UNK         0.5007 
     44 O         -73.7400   24.1767  -75.3839 O.2       6 UNK        -0.5032 
     45 CA        -75.5460   23.8976  -73.8263 C.3       5 UNK         0.0783 
     46 C46       -75.2626   25.2908  -73.2058 C.3       11 UNK        -0.0857 
     47 S47       -75.5444   25.3220  -71.4019 S.3       11 UNK        -0.2512 
     48 C48       -77.2575   25.9428  -71.2562 C.3       11 UNK         0.0225 
     49 N         -76.9874   23.6596  -73.9267 N.am      5 UNK        -0.4615 
     50 C         -77.6338   22.5511  -73.5489 C.2       4 UNK         0.5053 
     51 O         -77.0908   21.5970  -72.9928 O.2       4 UNK        -0.5105 
     52 CA        -79.1401   22.4824  -73.8671 C.3       4 UNK         0.0263 
     53 CB        -79.9723   22.7407  -72.6006 C.3       4 UNK        -0.1981 
     54 N         -79.5498   23.4197  -74.9208 N.am      4 UNK        -0.4224 
     55 C         -79.2551   23.2665  -76.2225 C.2       3 UNK         0.4895 
     56 O         -78.6437   22.2956  -76.6681 O.2       3 UNK        -0.5091 
     57 CA        -79.6495   24.4031  -77.1866 C.3       3 UNK         0.0250 
     58 CB        -81.0471   24.1465  -77.7703 C.3       3 UNK        -0.1996 
     59 N         -79.6175   25.7347  -76.5758 N.am      3 UNK        -0.4254 
     60 C         -78.5379   26.2967  -76.0133 C.2       2 UNK         0.5004 
     61 O         -77.4202   25.7819  -76.0241 O.2       2 UNK        -0.5226 
     62 CA        -78.7410   27.6146  -75.2493 C.3       2 UNK         0.0269 
     63 CB        -78.3007   28.8137  -76.1016 C.3       2 UNK        -0.1926 
     64 N         -80.1067   27.8353  -74.7574 N.am      2 UNK        -0.4687 
     65 C         -80.7734   27.0155  -73.9301 C.2       1 UNK         0.5165 
     66 O         -80.3432   25.9215  -73.5575 O.2       1 UNK        -0.5079 
     67 H67       -85.3043   26.2422  -76.4270 H         1 UNK         0.0900 
     68 H68       -84.1383   24.9384  -76.6576 H         1 UNK         0.0900 
     69 H69       -84.9750   25.1092  -75.1142 H         1 UNK         0.0900 
     70 H70       -83.7772   26.1058  -73.5296 H         1 UNK         0.2959 
     71 H71       -82.3400   28.5019  -73.7862 H         1 UNK         0.1079 
     72 H72       -81.8913   26.4727  -71.5306 H         1 UNK         0.0837 
     73 H73       -83.3993   27.2869  -71.6926 H         1 UNK         0.0837 
     74 H74       -80.5091   30.7529  -71.3257 H         1 UNK         0.0685 
     75 H75       -80.8973   29.9619  -72.8197 H         1 UNK         0.0685 
     76 H76       -79.5574   27.2515  -71.0747 H         1 UNK         0.1434 
     77 H77       -75.4943   27.9003  -72.2424 H         1 UNK         0.1329 
     78 H78       -78.3467   31.0518  -72.6575 H         1 UNK         0.1335 
     79 H79       -76.1837   31.1982  -73.7496 H         1 UNK         0.0680 
     80 H80       -75.0477   29.8823  -73.6951 H         1 UNK         0.0680 
     81 H81       -73.5124   30.0881  -70.2423 H         1 UNK         0.1032 
     82 H82       -73.7782   29.1602  -71.6886 H         1 UNK         0.1032 
     83 H83       -71.8595   31.5298  -71.4573 H         1 UNK         0.0461 
     84 H84       -69.7716   29.2139  -69.7474 H         1 UNK         0.3453 
     85 H85       -70.6691   30.7059  -69.6474 H         1 UNK         0.3453 
     86 H86       -72.8080   30.1710  -73.8158 H         1 UNK         0.2984 
     87 H87       -72.1652   31.4965  -75.8126 H         1 UNK         0.0554 
     88 H88       -70.1063   32.8835  -75.9956 H         1 UNK         0.0847 
     89 H89       -70.2803   31.8252  -77.3841 H         1 UNK         0.0847 
     90 H90       -69.1161   31.4363  -76.1175 H         1 UNK         0.0847 
     91 H91       -70.3282   29.3333  -76.4399 H         1 UNK         0.3141 
     92 H92       -71.2537   27.4534  -77.3236 H         1 UNK         0.0743 
     93 H93       -72.1361   26.3818  -74.5832 H         1 UNK         0.0784 
     94 H94       -71.2460   25.4687  -75.8010 H         1 UNK         0.0784 
     95 H95       -70.4997   26.8516  -75.0152 H         1 UNK         0.0784 
     96 H96       -73.6545   26.0834  -76.5265 H         1 UNK         0.3213 
     97 H97       -75.9438   27.3161  -77.9543 H         1 UNK         0.0855 
     98 H98       -74.8712   26.2494  -80.6145 H         1 UNK         0.0814 
     99 H99       -75.5906   27.8252  -80.3284 H         1 UNK         0.0814 
    100 H100      -76.5785   26.3816  -80.1909 H         1 UNK         0.0814 
    101 H101      -76.1290   25.2641  -77.2388 H         1 UNK         0.3105 
    102 H102      -76.0414   22.5275  -78.0994 H         1 UNK         0.0547 
    103 H103      -74.3620   20.9461  -77.1140 H         1 UNK         0.0837 
    104 H104      -73.1321   22.2076  -77.1896 H         1 UNK         0.0837 
    105 H105      -73.8385   21.5719  -78.6671 H         1 UNK         0.0837 
    106 H106      -76.5320   22.8542  -75.9771 H         1 UNK         0.3020 
    107 H107      -75.0828   23.1376  -73.1929 H         1 UNK         0.1245 
    108 H108      -75.8557   26.0597  -73.7030 H         1 UNK         0.0781 
    109 H109      -74.2205   25.5836  -73.3440 H         1 UNK         0.0781 
    110 H110      -77.5794   25.7780  -70.2270 H         1 UNK         0.0836 
    111 H111      -77.9068   25.3272  -71.8791 H         1 UNK         0.0836 
    112 H112      -77.5030   24.3780  -74.4201 H         1 UNK         0.3022 
    113 H113      -79.3548   21.4685  -74.2118 H         1 UNK         0.0747 
    114 H114      -81.0406   22.6682  -72.8051 H         1 UNK         0.0793 
    115 H115      -79.7400   22.0082  -71.8264 H         1 UNK         0.0793 
    116 H116      -79.7780   23.7277  -72.1808 H         1 UNK         0.0793 
    117 H117      -80.0037   24.2745  -74.6094 H         1 UNK         0.3047 
    118 H118      -78.9275   24.4026  -78.0061 H         1 UNK         0.0822 
    119 H119      -81.3219   24.9104  -78.4980 H         1 UNK         0.0807 
    120 H120      -81.8106   24.1331  -76.9921 H         1 UNK         0.0807 
    121 H121      -81.0856   23.1835  -78.2816 H         1 UNK         0.0807 
    122 H122      -80.4968   26.2322  -76.5121 H         1 UNK         0.2946 
    123 H123      -78.0895   27.5642  -74.3764 H         1 UNK         0.1144 
    124 H124      -78.3569   29.7435  -75.5351 H         1 UNK         0.0793 
    125 H125      -78.9166   28.9232  -76.9950 H         1 UNK         0.0793 
    126 H126      -77.2654   28.7019  -76.4261 H         1 UNK         0.0793 
    127 H127      -80.5624   28.6795  -75.0726 H         1 UNK         0.2896 
@<TRIPOS>BOND
     1    1    2 1    
     2    1   67 1    
     3    1   68 1    
     4    1   69 1    
     5    2    3 2    
     6    2    4 am   BACKBONE|DICT|INTERRES
     7    4    5 1    
     8    4   70 1    
     9    5    6 1    
    10    5   65 1    
    11    5   71 1    
    12    6    7 1    
    13    6   72 1    
    14    6   73 1    
    15    7    8 1    
    16    8    9 1    
    17    8   74 1    
    18    8   75 1    
    19    9   10 ar   
    20    9   14 ar   
    21   10   11 ar   
    22   10   76 1    
    23   11   12 ar   
    24   11   48 1    
    25   12   13 ar   
    26   12   77 1    
    27   13   14 ar   
    28   13   15 1    
    29   14   78 1    
    30   15   16 1    
    31   15   79 1    
    32   15   80 1    
    33   16   17 1    
    34   17   18 1    
    35   17   81 1    
    36   17   82 1    
    37   18   19 1    
    38   18   22 1    
    39   18   83 1    
    40   19   20 am   BACKBONE|DICT|INTERRES
    41   19   21 2    
    42   20   84 1    
    43   20   85 1    
    44   22   23 am   BACKBONE|DICT|INTERRES
    45   22   86 1    
    46   23   24 2    
    47   23   25 1    
    48   25   26 1    
    49   25   27 1    
    50   25   87 1    
    51   26   88 1    
    52   26   89 1    
    53   26   90 1    
    54   27   28 am   BACKBONE|DICT|INTERRES
    55   27   91 1    
    56   28   29 2    
    57   28   30 1    
    58   30   31 1    
    59   30   32 1    
    60   30   92 1    
    61   31   93 1    
    62   31   94 1    
    63   31   95 1    
    64   32   33 am   BACKBONE|DICT|INTERRES
    65   32   96 1    
    66   33   34 2    
    67   33   35 1    
    68   35   36 1    
    69   35   37 1    
    70   35   97 1    
    71   36   98 1    
    72   36   99 1    
    73   36  100 1    
    74   37   38 am   BACKBONE|DICT|INTERRES
    75   37  101 1    
    76   38   39 2    
    77   38   40 1    
    78   40   41 1    
    79   40   42 1    
    80   40  102 1    
    81   41  103 1    
    82   41  104 1    
    83   41  105 1    
    84   42   43 am   BACKBONE|DICT|INTERRES
    85   42  106 1    
    86   43   44 2    
    87   43   45 1    
    88   45   46 1    
    89   45   49 1    
    90   45  107 1    
    91   46   47 1    
    92   46  108 1    
    93   46  109 1    
    94   47   48 1    
    95   48  110 1    
    96   48  111 1    
    97   49   50 am   BACKBONE|DICT|INTERRES
    98   49  112 1    
    99   50   51 2    
   100   50   52 1    
   101   52   53 1    
   102   52   54 1    
   103   52  113 1    
   104   53  114 1    
   105   53  115 1    
   106   53  116 1    
   107   54   55 am   BACKBONE|DICT|INTERRES
   108   54  117 1    
   109   55   56 2    
   110   55   57 1    
   111   57   58 1    
   112   57   59 1    
   113   57  118 1    
   114   58  119 1    
   115   58  120 1    
   116   58  121 1    
   117   59   60 am   BACKBONE|DICT|INTERRES
   118   59  122 1    
   119   60   61 2    
   120   60   62 1    
   121   62   63 1    
   122   62   64 1    
   123   62  123 1    
   124   63  124 1    
   125   63  125 1    
   126   63  126 1    
   127   64   65 am   BACKBONE|DICT|INTERRES
   128   64  127 1    
   129   65   66 2    
@<TRIPOS>SUBSTRUCTURE
     1 UNK         1 GROUP             0       ****    0 ROOT    
