@<TRIPOS>MOLECULE
3R135
127   129    1
SMALL
USER_CHARGES


@<TRIPOS>ATOM
      1 CA        -83.5897   24.3481  -71.3507 C.3       0 UNK        -0.1998 
      2 C         -83.4164   25.3853  -72.4491 C.2       0 UNK         0.4909 
      3 O         -84.0586   25.2816  -73.4952 O.2       0 UNK        -0.5240 
      4 N         -82.5483   26.3811  -72.2221 N.am      1 UNK        -0.4739 
      5 CA        -82.1581   27.4180  -73.1853 C.3       1 UNK         0.0864 
      6 C6        -81.1969   28.4922  -72.5829 C.3       11 UNK        -0.0881 
      7 S7        -80.2083   28.0107  -71.1128 S.3       11 UNK        -0.2682 
      8 C8        -78.8095   27.0558  -71.7858 C.3       11 UNK         0.0289 
      9 C9        -77.8120   27.9025  -72.5634 C.ar      11 UNK        -0.0687 
     10 C10       -77.9365   28.0445  -73.9473 C.ar      11 UNK        -0.0823 
     11 C11       -76.9804   28.7446  -74.6856 C.ar      11 UNK        -0.0830 
     12 C12       -75.8940   29.3231  -74.0229 C.ar      11 UNK        -0.1021 
     13 C13       -75.7644   29.2038  -72.6352 C.ar      11 UNK        -0.0753 
     14 C14       -76.7266   28.4934  -71.9103 C.ar      11 UNK        -0.0933 
     15 C15       -74.5819   29.8360  -71.9201 C.3       11 UNK         0.0166 
     16 S16       -73.1737   28.6874  -71.8369 S.3       11 UNK        -0.2615 
     17 C17       -71.9121   29.7501  -71.0509 C.3       11 UNK        -0.0865 
     18 CA        -70.8353   30.2878  -72.0324 C.3       10 UNK         0.0862 
     19 C         -69.7902   29.2072  -72.4439 C.2       10 UNK         0.5551 
     20 N         -69.5046   28.9944  -73.7234 N.am      10 UNK        -0.7319 
     21 O         -69.2027   28.5639  -71.5774 O.2       10 UNK        -0.5018 
     22 N         -71.4463   31.0086  -73.1586 N.am      10 UNK        -0.4509 
     23 C         -70.9100   32.0620  -73.7849 C.2       10 UNK         0.4899 
     24 O         -69.8680   32.6126  -73.4253 O.2       10 UNK        -0.4839 
     25 CA        -71.6723   32.5847  -75.0224 C.3       9 UNK         0.0222 
     26 CB        -70.7844   33.4551  -75.9375 C.3       9 UNK        -0.1966 
     27 N         -72.3372   31.5342  -75.8110 N.am      9 UNK        -0.4218 
     28 C         -71.7607   30.4522  -76.3552 C.2       9 UNK         0.5020 
     29 O         -70.5694   30.1604  -76.2190 O.2       9 UNK        -0.5274 
     30 CA        -72.6657   29.5635  -77.2222 C.3       8 UNK         0.0270 
     31 CB        -72.6951   30.0755  -78.6716 C.3       8 UNK        -0.1976 
     32 N         -72.1877   28.1810  -77.2132 N.am      8 UNK        -0.4313 
     33 C         -72.4430   27.3126  -76.2302 C.2       8 UNK         0.5041 
     34 O         -73.1736   27.5549  -75.2670 O.2       8 UNK        -0.5577 
     35 CA        -71.7667   25.9427  -76.3271 C.3       7 UNK         0.0284 
     36 CB        -70.4173   25.9361  -75.5869 C.3       7 UNK        -0.1958 
     37 N         -72.6774   24.9780  -75.7276 N.am      7 UNK        -0.4454 
     38 C         -72.7400   23.6707  -75.9969 C.2       7 UNK         0.5089 
     39 O         -71.9416   23.0790  -76.7244 O.2       7 UNK        -0.5125 
     40 CA        -73.9093   22.8929  -75.3635 C.3       6 UNK         0.0408 
     41 CB        -73.4840   22.2780  -74.0211 C.3       6 UNK        -0.1791 
     42 N         -75.1070   23.7158  -75.1617 N.am      6 UNK        -0.4762 
     43 C         -75.8579   24.2356  -76.1432 C.2       6 UNK         0.5007 
     44 O         -75.6693   24.0019  -77.3385 O.2       6 UNK        -0.5032 
     45 CA        -77.0337   25.1313  -75.6993 C.3       5 UNK         0.0783 
     46 C46       -77.5161   26.1150  -76.7976 C.3       11 UNK        -0.0857 
     47 S47       -76.3423   27.4870  -77.0817 S.3       11 UNK        -0.2512 
     48 C48       -77.1250   28.8739  -76.1958 C.3       11 UNK         0.0225 
     49 N         -78.1389   24.3037  -75.2117 N.am      5 UNK        -0.4615 
     50 C         -78.1912   23.7141  -74.0091 C.2       4 UNK         0.5053 
     51 O         -77.2923   23.8171  -73.1725 O.2       4 UNK        -0.5105 
     52 CA        -79.4398   22.8741  -73.6781 C.3       4 UNK         0.0263 
     53 CB        -79.8990   23.0771  -72.2217 C.3       4 UNK        -0.1981 
     54 N         -80.5596   23.1931  -74.5656 N.am      4 UNK        -0.4224 
     55 C         -81.2227   22.3232  -75.3392 C.2       3 UNK         0.4895 
     56 O         -80.9405   21.1267  -75.4146 O.2       3 UNK        -0.5091 
     57 CA        -82.4131   22.8548  -76.1641 C.3       3 UNK         0.0250 
     58 CB        -83.7407   22.3631  -75.5637 C.3       3 UNK        -0.1996 
     59 N         -82.4554   24.3158  -76.2759 N.am      3 UNK        -0.4254 
     60 C         -81.6392   25.0441  -77.0520 C.2       2 UNK         0.5004 
     61 O         -80.7886   24.5543  -77.7948 O.2       2 UNK        -0.5226 
     62 CA        -81.7506   26.5794  -76.9483 C.3       2 UNK         0.0269 
     63 CB        -82.7058   27.1185  -78.0249 C.3       2 UNK        -0.1926 
     64 N         -82.1678   27.0882  -75.6325 N.am      2 UNK        -0.4687 
     65 C         -81.5793   26.7859  -74.4662 C.2       1 UNK         0.5165 
     66 O         -80.6328   26.0073  -74.3751 O.2       1 UNK        -0.5079 
     67 H67       -82.9490   24.5520  -70.4929 H         1 UNK         0.0900 
     68 H68       -83.3418   23.3574  -71.7309 H         1 UNK         0.0900 
     69 H69       -84.6239   24.3337  -71.0079 H         1 UNK         0.0900 
     70 H70       -82.0374   26.4111  -71.3505 H         1 UNK         0.2959 
     71 H71       -83.0801   27.9290  -73.4713 H         1 UNK         0.1079 
     72 H72       -80.5376   28.9258  -73.3367 H         1 UNK         0.0837 
     73 H73       -81.8073   29.3338  -72.2519 H         1 UNK         0.0837 
     74 H74       -78.2959   26.5757  -70.9515 H         1 UNK         0.0685 
     75 H75       -79.1753   26.2373  -72.4008 H         1 UNK         0.0685 
     76 H76       -78.7661   27.5861  -74.4593 H         1 UNK         0.1434 
     77 H77       -75.1407   29.8537  -74.5881 H         1 UNK         0.1329 
     78 H78       -76.6197   28.3837  -70.8398 H         1 UNK         0.1335 
     79 H79       -74.2822   30.7502  -72.4343 H         1 UNK         0.0680 
     80 H80       -74.8693   30.1304  -70.9094 H         1 UNK         0.0680 
     81 H81       -71.4472   29.1898  -70.2375 H         1 UNK         0.1032 
     82 H82       -72.4063   30.5923  -70.5643 H         1 UNK         0.1032 
     83 H83       -70.2545   31.0144  -71.4609 H         1 UNK         0.0461 
     84 H84       -68.8120   28.3027  -73.9579 H         1 UNK         0.3453 
     85 H85       -69.9574   29.5215  -74.4630 H         1 UNK         0.3453 
     86 H86       -72.2769   30.5831  -73.5429 H         1 UNK         0.2984 
     87 H87       -72.4679   33.2225  -74.6346 H         1 UNK         0.0554 
     88 H88       -71.3467   33.8406  -76.7878 H         1 UNK         0.0847 
     89 H89       -69.9335   32.8937  -76.3253 H         1 UNK         0.0847 
     90 H90       -70.3874   34.3162  -75.3984 H         1 UNK         0.0847 
     91 H91       -73.3223   31.6827  -75.9828 H         1 UNK         0.3141 
     92 H92       -73.6823   29.5911  -76.8226 H         1 UNK         0.0743 
     93 H93       -71.7008   30.0771  -79.1207 H         1 UNK         0.0784 
     94 H94       -73.3449   29.4608  -79.2950 H         1 UNK         0.0784 
     95 H95       -73.0751   31.0968  -78.7193 H         1 UNK         0.0784 
     96 H96       -71.5303   27.9267  -77.9362 H         1 UNK         0.3213 
     97 H97       -71.6158   25.6910  -77.3793 H         1 UNK         0.0855 
     98 H98       -69.7339   26.6701  -76.0157 H         1 UNK         0.0814 
     99 H99       -69.9314   24.9625  -75.6510 H         1 UNK         0.0814 
    100 H100      -70.5396   26.1821  -74.5310 H         1 UNK         0.0814 
    101 H101      -73.3882   25.4038  -75.1440 H         1 UNK         0.3105 
    102 H102      -74.1718   22.0794  -76.0431 H         1 UNK         0.0547 
    103 H103      -72.6102   21.6368  -74.1458 H         1 UNK         0.0837 
    104 H104      -73.2239   23.0441  -73.2896 H         1 UNK         0.0837 
    105 H105      -74.2775   21.6629  -73.5964 H         1 UNK         0.0837 
    106 H106      -75.4007   23.8795  -74.2048 H         1 UNK         0.3020 
    107 H107      -76.6752   25.7324  -74.8603 H         1 UNK         0.1245 
    108 H108      -78.4800   26.5397  -76.5187 H         1 UNK         0.0781 
    109 H109      -77.6957   25.5984  -77.7424 H         1 UNK         0.0781 
    110 H110      -78.1772   28.9471  -76.4752 H         1 UNK         0.0836 
    111 H111      -76.6617   29.8034  -76.5299 H         1 UNK         0.0836 
    112 H112      -78.9030   24.1531  -75.8546 H         1 UNK         0.3022 
    113 H113      -79.1430   21.8307  -73.7990 H         1 UNK         0.0747 
    114 H114      -80.7447   22.4323  -71.9827 H         1 UNK         0.0793 
    115 H115      -79.1028   22.8370  -71.5160 H         1 UNK         0.0793 
    116 H116      -80.2038   24.1074  -72.0367 H         1 UNK         0.0793 
    117 H117      -80.8182   24.1780  -74.5856 H         1 UNK         0.3047 
    118 H118      -82.3203   22.4381  -77.1695 H         1 UNK         0.0822 
    119 H119      -84.5919   22.6825  -76.1651 H         1 UNK         0.0807 
    120 H120      -83.8872   22.7358  -74.5492 H         1 UNK         0.0807 
    121 H121      -83.7695   21.2736  -75.5170 H         1 UNK         0.0807 
    122 H122      -83.1016   24.8001  -75.6649 H         1 UNK         0.2946 
    123 H123      -80.7558   26.9821  -77.1477 H         1 UNK         0.1144 
    124 H124      -82.7058   28.2084  -78.0476 H         1 UNK         0.0793 
    125 H125      -83.7308   26.7845  -77.8587 H         1 UNK         0.0793 
    126 H126      -82.4087   26.7770  -79.0177 H         1 UNK         0.0793 
    127 H127      -82.9617   27.7130  -75.6281 H         1 UNK         0.2896 
@<TRIPOS>BOND
     1    1    2 1    
     2    1   67 1    
     3    1   68 1    
     4    1   69 1    
     5    2    3 2    
     6    2    4 am   BACKBONE|DICT|INTERRES
     7    4    5 1    
     8    4   70 1    
     9    5    6 1    
    10    5   65 1    
    11    5   71 1    
    12    6    7 1    
    13    6   72 1    
    14    6   73 1    
    15    7    8 1    
    16    8    9 1    
    17    8   74 1    
    18    8   75 1    
    19    9   10 ar   
    20    9   14 ar   
    21   10   11 ar   
    22   10   76 1    
    23   11   12 ar   
    24   11   48 1    
    25   12   13 ar   
    26   12   77 1    
    27   13   14 ar   
    28   13   15 1    
    29   14   78 1    
    30   15   16 1    
    31   15   79 1    
    32   15   80 1    
    33   16   17 1    
    34   17   18 1    
    35   17   81 1    
    36   17   82 1    
    37   18   19 1    
    38   18   22 1    
    39   18   83 1    
    40   19   20 am   BACKBONE|DICT|INTERRES
    41   19   21 2    
    42   20   84 1    
    43   20   85 1    
    44   22   23 am   BACKBONE|DICT|INTERRES
    45   22   86 1    
    46   23   24 2    
    47   23   25 1    
    48   25   26 1    
    49   25   27 1    
    50   25   87 1    
    51   26   88 1    
    52   26   89 1    
    53   26   90 1    
    54   27   28 am   BACKBONE|DICT|INTERRES
    55   27   91 1    
    56   28   29 2    
    57   28   30 1    
    58   30   31 1    
    59   30   32 1    
    60   30   92 1    
    61   31   93 1    
    62   31   94 1    
    63   31   95 1    
    64   32   33 am   BACKBONE|DICT|INTERRES
    65   32   96 1    
    66   33   34 2    
    67   33   35 1    
    68   35   36 1    
    69   35   37 1    
    70   35   97 1    
    71   36   98 1    
    72   36   99 1    
    73   36  100 1    
    74   37   38 am   BACKBONE|DICT|INTERRES
    75   37  101 1    
    76   38   39 2    
    77   38   40 1    
    78   40   41 1    
    79   40   42 1    
    80   40  102 1    
    81   41  103 1    
    82   41  104 1    
    83   41  105 1    
    84   42   43 am   BACKBONE|DICT|INTERRES
    85   42  106 1    
    86   43   44 2    
    87   43   45 1    
    88   45   46 1    
    89   45   49 1    
    90   45  107 1    
    91   46   47 1    
    92   46  108 1    
    93   46  109 1    
    94   47   48 1    
    95   48  110 1    
    96   48  111 1    
    97   49   50 am   BACKBONE|DICT|INTERRES
    98   49  112 1    
    99   50   51 2    
   100   50   52 1    
   101   52   53 1    
   102   52   54 1    
   103   52  113 1    
   104   53  114 1    
   105   53  115 1    
   106   53  116 1    
   107   54   55 am   BACKBONE|DICT|INTERRES
   108   54  117 1    
   109   55   56 2    
   110   55   57 1    
   111   57   58 1    
   112   57   59 1    
   113   57  118 1    
   114   58  119 1    
   115   58  120 1    
   116   58  121 1    
   117   59   60 am   BACKBONE|DICT|INTERRES
   118   59  122 1    
   119   60   61 2    
   120   60   62 1    
   121   62   63 1    
   122   62   64 1    
   123   62  123 1    
   124   63  124 1    
   125   63  125 1    
   126   63  126 1    
   127   64   65 am   BACKBONE|DICT|INTERRES
   128   64  127 1    
   129   65   66 2    
@<TRIPOS>SUBSTRUCTURE
     1 UNK         1 GROUP             0       ****    0 ROOT    
