@<TRIPOS>MOLECULE
3R135
127   129    1
SMALL
USER_CHARGES


@<TRIPOS>ATOM
      1 CA        -83.3542   31.3058  -74.0163 C.3       0 UNK        -0.1998 
      2 C         -82.1864   30.6952  -74.7763 C.2       0 UNK         0.4909 
      3 O         -81.9931   31.0031  -75.9526 O.2       0 UNK        -0.5240 
      4 N         -81.4070   29.8323  -74.1119 N.am      1 UNK        -0.4739 
      5 CA        -80.2567   29.1214  -74.6859 C.3       1 UNK         0.0864 
      6 C6        -79.3400   28.5231  -73.5870 C.3       11 UNK        -0.0881 
      7 S7        -80.2237   27.4755  -72.3756 S.3       11 UNK        -0.2682 
      8 C8        -79.7393   28.2438  -70.7953 C.3       11 UNK         0.0289 
      9 C9        -78.2818   27.9618  -70.4588 C.ar      11 UNK        -0.0687 
     10 C10       -77.8855   26.6602  -70.1378 C.ar      11 UNK        -0.0823 
     11 C11       -76.5448   26.3737  -69.8699 C.ar      11 UNK        -0.0830 
     12 C12       -75.6052   27.4076  -69.8781 C.ar      11 UNK        -0.1021 
     13 C13       -75.9880   28.7141  -70.1890 C.ar      11 UNK        -0.0753 
     14 C14       -77.3293   28.9877  -70.4803 C.ar      11 UNK        -0.0933 
     15 C15       -74.9389   29.8166  -70.2038 C.3       11 UNK         0.0166 
     16 S16       -73.8982   29.7498  -71.6997 S.3       11 UNK        -0.2615 
     17 C17       -74.9782   30.5470  -72.9351 C.3       11 UNK        -0.0865 
     18 CA        -75.1815   29.6990  -74.2259 C.3       10 UNK         0.0862 
     19 C         -76.2981   30.2982  -75.1405 C.2       10 UNK         0.5551 
     20 N         -76.2067   30.1986  -76.4612 N.am      10 UNK        -0.7319 
     21 O         -77.2776   30.8498  -74.6475 O.2       10 UNK        -0.5018 
     22 N         -73.9213   29.3828  -74.9321 N.am      10 UNK        -0.4509 
     23 C         -73.1034   30.2775  -75.5097 C.2       10 UNK         0.4899 
     24 O         -73.2620   31.4961  -75.4257 O.2       10 UNK        -0.4839 
     25 CA        -71.9610   29.7423  -76.3955 C.3       9 UNK         0.0222 
     26 CB        -70.7304   30.6757  -76.4218 C.3       9 UNK        -0.1966 
     27 N         -71.5833   28.3489  -76.1376 N.am      9 UNK        -0.4218 
     28 C         -70.9142   27.8527  -75.0843 C.2       9 UNK         0.5020 
     29 O         -70.5258   28.5360  -74.1361 O.2       9 UNK        -0.5274 
     30 CA        -70.6174   26.3381  -75.0932 C.3       8 UNK         0.0270 
     31 CB        -70.7427   25.7223  -73.6865 C.3       8 UNK        -0.1976 
     32 N         -71.5129   25.6230  -76.0053 N.am      8 UNK        -0.4313 
     33 C         -71.2041   25.1893  -77.2353 C.2       8 UNK         0.5041 
     34 O         -70.0763   25.2685  -77.7228 O.2       8 UNK        -0.5577 
     35 CA        -72.3452   24.5900  -78.0834 C.3       7 UNK         0.0284 
     36 CB        -72.2623   23.0553  -78.0830 C.3       7 UNK        -0.1958 
     37 N         -73.6847   25.0019  -77.6476 N.am      7 UNK        -0.4454 
     38 C         -74.1643   26.2535  -77.7340 C.2       7 UNK         0.5089 
     39 O         -73.5458   27.1841  -78.2500 O.2       7 UNK        -0.5125 
     40 CA        -75.5173   26.5423  -77.0525 C.3       6 UNK         0.0408 
     41 CB        -76.6708   26.3686  -78.0499 C.3       6 UNK        -0.1791 
     42 N         -75.7689   25.7171  -75.8674 N.am      6 UNK        -0.4762 
     43 C         -74.9454   25.6127  -74.8116 C.2       6 UNK         0.5007 
     44 O         -73.9616   26.3373  -74.6642 O.2       6 UNK        -0.5032 
     45 CA        -75.2157   24.4965  -73.7771 C.3       5 UNK         0.0783 
     46 C46       -75.7321   25.1368  -72.4709 C.3       11 UNK        -0.0857 
     47 S47       -76.2116   23.9363  -71.1772 S.3       11 UNK        -0.2512 
     48 C48       -76.0919   24.9366  -69.6520 C.3       11 UNK         0.0225 
     49 N         -76.1148   23.4460  -74.2647 N.am      5 UNK        -0.4615 
     50 C         -75.9607   22.6866  -75.3583 C.2       4 UNK         0.5053 
     51 O         -74.9565   22.7114  -76.0704 O.2       4 UNK        -0.5105 
     52 CA        -77.1611   21.8087  -75.7673 C.3       4 UNK         0.0263 
     53 CB        -76.8959   20.3394  -75.4032 C.3       4 UNK        -0.1981 
     54 N         -78.4460   22.2282  -75.1845 N.am      4 UNK        -0.4224 
     55 C         -79.0160   23.4343  -75.3344 C.2       3 UNK         0.4895 
     56 O         -78.5276   24.3409  -76.0139 O.2       3 UNK        -0.5091 
     57 CA        -80.2842   23.6820  -74.4987 C.3       3 UNK         0.0250 
     58 CB        -79.9139   23.8441  -73.0127 C.3       3 UNK        -0.1996 
     59 N         -81.0121   24.8769  -74.9283 N.am      3 UNK        -0.4254 
     60 C         -81.7165   24.9886  -76.0633 C.2       2 UNK         0.5004 
     61 O         -81.8870   24.0596  -76.8546 O.2       2 UNK        -0.5226 
     62 CA        -82.3684   26.3539  -76.3607 C.3       2 UNK         0.0269 
     63 CB        -83.8928   26.2771  -76.1726 C.3       2 UNK        -0.1926 
     64 N         -81.8465   27.4449  -75.5314 N.am      2 UNK        -0.4687 
     65 C         -80.6638   28.0489  -75.7185 C.2       1 UNK         0.5165 
     66 O         -79.9076   27.7890  -76.6539 O.2       1 UNK        -0.5079 
     67 H67       -83.4020   30.9502  -72.9871 H         1 UNK         0.0900 
     68 H68       -84.2940   31.0528  -74.5065 H         1 UNK         0.0900 
     69 H69       -83.2616   32.3914  -73.9957 H         1 UNK         0.0900 
     70 H70       -81.6099   29.6123  -73.1468 H         1 UNK         0.2959 
     71 H71       -79.6680   29.8568  -75.2388 H         1 UNK         0.1079 
     72 H72       -78.8509   29.3407  -73.0565 H         1 UNK         0.0837 
     73 H73       -78.5272   27.9417  -74.0278 H         1 UNK         0.0837 
     74 H74       -79.9361   29.3164  -70.8325 H         1 UNK         0.0685 
     75 H75       -80.3716   27.8435  -70.0016 H         1 UNK         0.0685 
     76 H76       -78.6137   25.8603  -70.1457 H         1 UNK         0.1434 
     77 H77       -74.5640   27.1929  -69.6782 H         1 UNK         0.1329 
     78 H78       -77.6306   29.9962  -70.7276 H         1 UNK         0.1335 
     79 H79       -74.2957   29.7078  -69.3292 H         1 UNK         0.0680 
     80 H80       -75.4020   30.8006  -70.1151 H         1 UNK         0.0680 
     81 H81       -74.5637   31.5266  -73.1757 H         1 UNK         0.1032 
     82 H82       -75.9419   30.7494  -72.4660 H         1 UNK         0.1032 
     83 H83       -75.5803   28.7335  -73.9116 H         1 UNK         0.0461 
     84 H84       -75.4025   29.7725  -76.8897 H         1 UNK         0.3453 
     85 H85       -76.9374   30.5899  -77.0337 H         1 UNK         0.3453 
     86 H86       -73.7092   28.3949  -75.0136 H         1 UNK         0.2984 
     87 H87       -72.3692   29.7358  -77.4071 H         1 UNK         0.0554 
     88 H88       -69.9431   30.2798  -77.0631 H         1 UNK         0.0847 
     89 H89       -70.3116   30.8246  -75.4262 H         1 UNK         0.0847 
     90 H90       -70.9944   31.6606  -76.8089 H         1 UNK         0.0847 
     91 H91       -71.8827   27.6955  -76.8514 H         1 UNK         0.3141 
     92 H92       -69.5822   26.2206  -75.4195 H         1 UNK         0.0743 
     93 H93       -71.7331   25.8838  -73.2597 H         1 UNK         0.0784 
     94 H94       -70.5555   24.6486  -73.7051 H         1 UNK         0.0784 
     95 H95       -70.0185   26.1629  -73.0002 H         1 UNK         0.0784 
     96 H96       -72.4790   25.5748  -75.6975 H         1 UNK         0.3213 
     97 H97       -72.2056   24.9394  -79.1088 H         1 UNK         0.0855 
     98 H98       -72.3835   22.6453  -77.0795 H         1 UNK         0.0814 
     99 H99       -71.2960   22.7162  -78.4588 H         1 UNK         0.0814 
    100 H100      -73.0299   22.6148  -78.7196 H         1 UNK         0.0814 
    101 H101      -74.2457   24.2939  -77.1823 H         1 UNK         0.3105 
    102 H102      -75.5024   27.5805  -76.7237 H         1 UNK         0.0547 
    103 H103      -76.7605   25.3354  -78.3877 H         1 UNK         0.0837 
    104 H104      -77.6235   26.6566  -77.6054 H         1 UNK         0.0837 
    105 H105      -76.5242   26.9926  -78.9326 H         1 UNK         0.0837 
    106 H106      -76.5932   25.1242  -75.9001 H         1 UNK         0.3020 
    107 H107      -74.2548   24.0204  -73.5707 H         1 UNK         0.1245 
    108 H108      -74.9592   25.7935  -72.0667 H         1 UNK         0.0781 
    109 H109      -76.6003   25.7691  -72.6715 H         1 UNK         0.0781 
    110 H110      -76.6979   24.4748  -68.8713 H         1 UNK         0.0836 
    111 H111      -75.0610   24.9086  -69.2958 H         1 UNK         0.0836 
    112 H112      -76.9657   23.3341  -73.7347 H         1 UNK         0.3022 
    113 H113      -77.2551   21.8834  -76.8525 H         1 UNK         0.0747 
    114 H114      -77.6887   19.6884  -75.7723 H         1 UNK         0.0793 
    115 H115      -75.9617   19.9901  -75.8457 H         1 UNK         0.0793 
    116 H116      -76.8178   20.1983  -74.3244 H         1 UNK         0.0793 
    117 H117      -78.9095   21.5485  -74.5981 H         1 UNK         0.3047 
    118 H118      -80.9459   22.8202  -74.6097 H         1 UNK         0.0822 
    119 H119      -80.7930   24.0583  -72.4043 H         1 UNK         0.0807 
    120 H120      -79.1987   24.6539  -72.8604 H         1 UNK         0.0807 
    121 H121      -79.4633   22.9355  -72.6118 H         1 UNK         0.0807 
    122 H122      -80.9046   25.7015  -74.3554 H         1 UNK         0.2946 
    123 H123      -82.1623   26.5849  -77.4085 H         1 UNK         0.1144 
    124 H124      -84.3742   27.2167  -76.4449 H         1 UNK         0.0793 
    125 H125      -84.1615   26.0471  -75.1408 H         1 UNK         0.0793 
    126 H126      -84.3259   25.4992  -76.8031 H         1 UNK         0.0793 
    127 H127      -82.4044   27.7280  -74.7385 H         1 UNK         0.2896 
@<TRIPOS>BOND
     1    1    2 1    
     2    1   67 1    
     3    1   68 1    
     4    1   69 1    
     5    2    3 2    
     6    2    4 am   BACKBONE|DICT|INTERRES
     7    4    5 1    
     8    4   70 1    
     9    5    6 1    
    10    5   65 1    
    11    5   71 1    
    12    6    7 1    
    13    6   72 1    
    14    6   73 1    
    15    7    8 1    
    16    8    9 1    
    17    8   74 1    
    18    8   75 1    
    19    9   10 ar   
    20    9   14 ar   
    21   10   11 ar   
    22   10   76 1    
    23   11   12 ar   
    24   11   48 1    
    25   12   13 ar   
    26   12   77 1    
    27   13   14 ar   
    28   13   15 1    
    29   14   78 1    
    30   15   16 1    
    31   15   79 1    
    32   15   80 1    
    33   16   17 1    
    34   17   18 1    
    35   17   81 1    
    36   17   82 1    
    37   18   19 1    
    38   18   22 1    
    39   18   83 1    
    40   19   20 am   BACKBONE|DICT|INTERRES
    41   19   21 2    
    42   20   84 1    
    43   20   85 1    
    44   22   23 am   BACKBONE|DICT|INTERRES
    45   22   86 1    
    46   23   24 2    
    47   23   25 1    
    48   25   26 1    
    49   25   27 1    
    50   25   87 1    
    51   26   88 1    
    52   26   89 1    
    53   26   90 1    
    54   27   28 am   BACKBONE|DICT|INTERRES
    55   27   91 1    
    56   28   29 2    
    57   28   30 1    
    58   30   31 1    
    59   30   32 1    
    60   30   92 1    
    61   31   93 1    
    62   31   94 1    
    63   31   95 1    
    64   32   33 am   BACKBONE|DICT|INTERRES
    65   32   96 1    
    66   33   34 2    
    67   33   35 1    
    68   35   36 1    
    69   35   37 1    
    70   35   97 1    
    71   36   98 1    
    72   36   99 1    
    73   36  100 1    
    74   37   38 am   BACKBONE|DICT|INTERRES
    75   37  101 1    
    76   38   39 2    
    77   38   40 1    
    78   40   41 1    
    79   40   42 1    
    80   40  102 1    
    81   41  103 1    
    82   41  104 1    
    83   41  105 1    
    84   42   43 am   BACKBONE|DICT|INTERRES
    85   42  106 1    
    86   43   44 2    
    87   43   45 1    
    88   45   46 1    
    89   45   49 1    
    90   45  107 1    
    91   46   47 1    
    92   46  108 1    
    93   46  109 1    
    94   47   48 1    
    95   48  110 1    
    96   48  111 1    
    97   49   50 am   BACKBONE|DICT|INTERRES
    98   49  112 1    
    99   50   51 2    
   100   50   52 1    
   101   52   53 1    
   102   52   54 1    
   103   52  113 1    
   104   53  114 1    
   105   53  115 1    
   106   53  116 1    
   107   54   55 am   BACKBONE|DICT|INTERRES
   108   54  117 1    
   109   55   56 2    
   110   55   57 1    
   111   57   58 1    
   112   57   59 1    
   113   57  118 1    
   114   58  119 1    
   115   58  120 1    
   116   58  121 1    
   117   59   60 am   BACKBONE|DICT|INTERRES
   118   59  122 1    
   119   60   61 2    
   120   60   62 1    
   121   62   63 1    
   122   62   64 1    
   123   62  123 1    
   124   63  124 1    
   125   63  125 1    
   126   63  126 1    
   127   64   65 am   BACKBONE|DICT|INTERRES
   128   64  127 1    
   129   65   66 2    
@<TRIPOS>SUBSTRUCTURE
     1 UNK         1 GROUP             0       ****    0 ROOT    
