@<TRIPOS>MOLECULE
3R135
127   129    1
SMALL
USER_CHARGES


@<TRIPOS>ATOM
      1 CA        -86.3659   27.8237  -72.1302 C.3       0 UNK        -0.1998 
      2 C         -85.6456   27.8928  -73.4687 C.2       0 UNK         0.4909 
      3 O         -86.2072   27.4874  -74.4876 O.2       0 UNK        -0.5240 
      4 N         -84.4124   28.4130  -73.4745 N.am      1 UNK        -0.4739 
      5 CA        -83.5373   28.4915  -74.6491 C.3       1 UNK         0.0864 
      6 C6        -82.5652   29.6979  -74.5479 C.3       11 UNK        -0.0881 
      7 S7        -81.4626   29.6772  -73.0915 S.3       11 UNK        -0.2682 
      8 C8        -79.8754   29.3358  -73.9058 C.3       11 UNK         0.0289 
      9 C9        -78.7548   29.1420  -72.8980 C.ar      11 UNK        -0.0687 
     10 C10       -78.6306   27.9271  -72.2199 C.ar      11 UNK        -0.0823 
     11 C11       -77.6044   27.7342  -71.2906 C.ar      11 UNK        -0.0830 
     12 C12       -76.6921   28.7648  -71.0474 C.ar      11 UNK        -0.1021 
     13 C13       -76.7998   29.9809  -71.7288 C.ar      11 UNK        -0.0753 
     14 C14       -77.8350   30.1655  -72.6511 C.ar      11 UNK        -0.0933 
     15 C15       -75.8092   31.1033  -71.4586 C.3       11 UNK         0.0166 
     16 S16       -74.4103   31.0600  -72.6206 S.3       11 UNK        -0.2615 
     17 C17       -73.4445   29.6541  -71.9680 C.3       11 UNK        -0.0865 
     18 CA        -72.0316   29.5636  -72.6046 C.3       10 UNK         0.0862 
     19 C         -71.1358   28.4990  -71.9044 C.2       10 UNK         0.5551 
     20 N         -70.3554   27.7007  -72.6250 N.am      10 UNK        -0.7319 
     21 O         -71.1322   28.4037  -70.6795 O.2       10 UNK        -0.5018 
     22 N         -72.1185   29.3624  -74.0577 N.am      10 UNK        -0.4509 
     23 C         -71.4175   30.0301  -74.9792 C.2       10 UNK         0.4899 
     24 O         -70.6392   30.9498  -74.7194 O.2       10 UNK        -0.4839 
     25 CA        -71.6178   29.5760  -76.4385 C.3       9 UNK         0.0222 
     26 CB        -70.5855   30.1894  -77.4083 C.3       9 UNK        -0.1966 
     27 N         -71.6621   28.1154  -76.5893 N.am      9 UNK        -0.4218 
     28 C         -70.7115   27.2317  -76.2421 C.2       9 UNK         0.5020 
     29 O         -69.6539   27.5557  -75.6992 O.2       9 UNK        -0.5274 
     30 CA        -70.9692   25.7323  -76.5032 C.3       8 UNK         0.0270 
     31 CB        -70.8092   24.9222  -75.2045 C.3       8 UNK        -0.1976 
     32 N         -72.2850   25.4414  -77.0755 N.am      8 UNK        -0.4313 
     33 C         -72.6484   25.6299  -78.3504 C.2       8 UNK         0.5041 
     34 O         -71.8784   26.0020  -79.2360 O.2       8 UNK        -0.5577 
     35 CA        -74.1415   25.4308  -78.6727 C.3       7 UNK         0.0284 
     36 CB        -74.4430   23.9605  -79.0032 C.3       7 UNK        -0.1958 
     37 N         -75.0206   25.8918  -77.5897 N.am      7 UNK        -0.4454 
     38 C         -75.1053   27.1658  -77.1759 C.2       7 UNK         0.5089 
     39 O         -74.4815   28.0939  -77.6896 O.2       7 UNK        -0.5125 
     40 CA        -75.9929   27.4455  -75.9553 C.3       6 UNK         0.0408 
     41 CB        -77.4594   27.5764  -76.3799 C.3       6 UNK        -0.1791 
     42 N         -75.8504   26.4122  -74.9264 N.am      6 UNK        -0.4762 
     43 C         -74.7582   26.2841  -74.1572 C.2       6 UNK         0.5007 
     44 O         -73.8019   27.0582  -74.2090 O.2       6 UNK        -0.5032 
     45 CA        -74.6678   25.0541  -73.2294 C.3       5 UNK         0.0783 
     46 C46       -75.2083   25.3309  -71.8013 C.3       11 UNK        -0.0857 
     47 S47       -77.0051   25.0491  -71.6140 S.3       11 UNK        -0.2512 
     48 C48       -77.5057   26.4208  -70.5323 C.3       11 UNK         0.0225 
     49 N         -75.2537   23.8506  -73.8255 N.am      5 UNK        -0.4615 
     50 C         -74.8162   23.2467  -74.9350 C.2       4 UNK         0.5053 
     51 O         -73.8152   23.6042  -75.5517 O.2       4 UNK        -0.5105 
     52 CA        -75.6505   22.0712  -75.4694 C.3       4 UNK         0.0263 
     53 CB        -75.0895   20.7388  -74.9488 C.3       4 UNK        -0.1981 
     54 N         -77.0806   22.1576  -75.1507 N.am      4 UNK        -0.4224 
     55 C         -77.9088   23.1235  -75.5748 C.2       3 UNK         0.4895 
     56 O         -77.5388   24.0796  -76.2613 O.2       3 UNK        -0.5091 
     57 CA        -79.3871   22.9516  -75.1725 C.3       3 UNK         0.0250 
     58 CB        -79.5842   23.0068  -73.6418 C.3       3 UNK        -0.1996 
     59 N         -80.2999   23.8723  -75.8653 N.am      3 UNK        -0.4254 
     60 C         -80.4485   25.1957  -75.6951 C.2       2 UNK         0.5004 
     61 O         -79.8282   25.8606  -74.8650 O.2       2 UNK        -0.5226 
     62 CA        -81.4451   25.9030  -76.6449 C.3       2 UNK         0.0269 
     63 CB        -82.5123   24.9562  -77.2437 C.3       2 UNK        -0.1926 
     64 N         -82.1049   27.0838  -76.0639 N.am      2 UNK        -0.4687 
     65 C         -82.8410   27.1376  -74.9415 C.2       1 UNK         0.5165 
     66 O         -83.0087   26.1764  -74.1843 O.2       1 UNK        -0.5079 
     67 H67       -85.7607   28.2308  -71.3203 H         1 UNK         0.0900 
     68 H68       -87.2966   28.3887  -72.1748 H         1 UNK         0.0900 
     69 H69       -86.6058   26.7890  -71.8870 H         1 UNK         0.0900 
     70 H70       -83.9848   28.7003  -72.6053 H         1 UNK         0.2959 
     71 H71       -84.1742   28.6804  -75.5167 H         1 UNK         0.1079 
     72 H72       -83.1506   30.6171  -74.4917 H         1 UNK         0.0837 
     73 H73       -81.9766   29.8009  -75.4608 H         1 UNK         0.0837 
     74 H74       -79.9839   28.4372  -74.5105 H         1 UNK         0.0685 
     75 H75       -79.6354   30.1478  -74.5941 H         1 UNK         0.0685 
     76 H76       -79.3362   27.1305  -72.4172 H         1 UNK         0.1434 
     77 H77       -75.8992   28.6233  -70.3259 H         1 UNK         0.1329 
     78 H78       -77.9225   31.1064  -73.1769 H         1 UNK         0.1335 
     79 H79       -76.3122   32.0668  -71.5535 H         1 UNK         0.0680 
     80 H80       -75.4416   31.0546  -70.4324 H         1 UNK         0.0680 
     81 H81       -74.0005   28.7318  -72.1396 H         1 UNK         0.1032 
     82 H82       -73.3688   29.7715  -70.8855 H         1 UNK         0.1032 
     83 H83       -71.5358   30.5151  -72.4056 H         1 UNK         0.0461 
     84 H84       -69.7757   27.0257  -72.1531 H         1 UNK         0.3453 
     85 H85       -70.3014   27.7978  -73.6305 H         1 UNK         0.3453 
     86 H86       -72.7132   28.5877  -74.3431 H         1 UNK         0.2984 
     87 H87       -72.6024   29.9409  -76.7340 H         1 UNK         0.0554 
     88 H88       -70.7712   29.8751  -78.4353 H         1 UNK         0.0847 
     89 H89       -69.5659   29.9026  -77.1486 H         1 UNK         0.0847 
     90 H90       -70.6311   31.2790  -77.3911 H         1 UNK         0.0847 
     91 H91       -72.5175   27.7592  -77.0007 H         1 UNK         0.3141 
     92 H92       -70.2078   25.3958  -77.2097 H         1 UNK         0.0743 
     93 H93       -70.9643   23.8571  -75.3780 H         1 UNK         0.0784 
     94 H94       -69.8079   25.0374  -74.7873 H         1 UNK         0.0784 
     95 H95       -71.5189   25.2448  -74.4422 H         1 UNK         0.0784 
     96 H96       -72.9688   25.0317  -76.4423 H         1 UNK         0.3213 
     97 H97       -74.3699   26.0303  -79.5566 H         1 UNK         0.0855 
     98 H98       -73.8656   23.6335  -79.8689 H         1 UNK         0.0814 
     99 H99       -75.4965   23.8125  -79.2416 H         1 UNK         0.0814 
    100 H100      -74.1877   23.2970  -78.1775 H         1 UNK         0.0814 
    101 H101      -75.5781   25.1950  -77.1117 H         1 UNK         0.3105 
    102 H102      -75.6846   28.4006  -75.5234 H         1 UNK         0.0547 
    103 H103      -78.0864   27.7947  -75.5199 H         1 UNK         0.0837 
    104 H104      -77.8347   26.6650  -76.8454 H         1 UNK         0.0837 
    105 H105      -77.5899   28.3892  -77.0951 H         1 UNK         0.0837 
    106 H106      -76.5879   25.7213  -74.8630 H         1 UNK         0.3020 
    107 H107      -73.5987   24.8547  -73.1259 H         1 UNK         0.1245 
    108 H108      -74.9462   26.3380  -71.4715 H         1 UNK         0.0781 
    109 H109      -74.7111   24.6605  -71.0986 H         1 UNK         0.0781 
    110 H110      -76.8126   26.4975  -69.6930 H         1 UNK         0.0836 
    111 H111      -78.4802   26.1876  -70.1009 H         1 UNK         0.0836 
    112 H112      -76.0935   23.5086  -73.3811 H         1 UNK         0.3022 
    113 H113      -75.5580   22.0769  -76.5571 H         1 UNK         0.0747 
    114 H114      -75.6046   19.8883  -75.3959 H         1 UNK         0.0793 
    115 H115      -74.0312   20.6388  -75.1949 H         1 UNK         0.0793 
    116 H116      -75.1809   20.6570  -73.8649 H         1 UNK         0.0793 
    117 H117      -77.4620   21.4023  -74.5990 H         1 UNK         0.3047 
    118 H118      -79.6793   21.9543  -75.5054 H         1 UNK         0.0822 
    119 H119      -79.2502   23.9551  -73.2218 H         1 UNK         0.0807 
    120 H120      -79.0274   22.2178  -73.1358 H         1 UNK         0.0807 
    121 H121      -80.6333   22.8792  -73.3748 H         1 UNK         0.0807 
    122 H122      -80.8464   23.4464  -76.6001 H         1 UNK         0.2946 
    123 H123      -80.8373   26.2766  -77.4707 H         1 UNK         0.1144 
    124 H124      -82.0638   24.1880  -77.8744 H         1 UNK         0.0793 
    125 H125      -83.0913   24.4562  -76.4658 H         1 UNK         0.0793 
    126 H126      -83.2134   25.5035  -77.8742 H         1 UNK         0.0793 
    127 H127      -82.0028   27.9324  -76.6022 H         1 UNK         0.2896 
@<TRIPOS>BOND
     1    1    2 1    
     2    1   67 1    
     3    1   68 1    
     4    1   69 1    
     5    2    3 2    
     6    2    4 am   BACKBONE|DICT|INTERRES
     7    4    5 1    
     8    4   70 1    
     9    5    6 1    
    10    5   65 1    
    11    5   71 1    
    12    6    7 1    
    13    6   72 1    
    14    6   73 1    
    15    7    8 1    
    16    8    9 1    
    17    8   74 1    
    18    8   75 1    
    19    9   10 ar   
    20    9   14 ar   
    21   10   11 ar   
    22   10   76 1    
    23   11   12 ar   
    24   11   48 1    
    25   12   13 ar   
    26   12   77 1    
    27   13   14 ar   
    28   13   15 1    
    29   14   78 1    
    30   15   16 1    
    31   15   79 1    
    32   15   80 1    
    33   16   17 1    
    34   17   18 1    
    35   17   81 1    
    36   17   82 1    
    37   18   19 1    
    38   18   22 1    
    39   18   83 1    
    40   19   20 am   BACKBONE|DICT|INTERRES
    41   19   21 2    
    42   20   84 1    
    43   20   85 1    
    44   22   23 am   BACKBONE|DICT|INTERRES
    45   22   86 1    
    46   23   24 2    
    47   23   25 1    
    48   25   26 1    
    49   25   27 1    
    50   25   87 1    
    51   26   88 1    
    52   26   89 1    
    53   26   90 1    
    54   27   28 am   BACKBONE|DICT|INTERRES
    55   27   91 1    
    56   28   29 2    
    57   28   30 1    
    58   30   31 1    
    59   30   32 1    
    60   30   92 1    
    61   31   93 1    
    62   31   94 1    
    63   31   95 1    
    64   32   33 am   BACKBONE|DICT|INTERRES
    65   32   96 1    
    66   33   34 2    
    67   33   35 1    
    68   35   36 1    
    69   35   37 1    
    70   35   97 1    
    71   36   98 1    
    72   36   99 1    
    73   36  100 1    
    74   37   38 am   BACKBONE|DICT|INTERRES
    75   37  101 1    
    76   38   39 2    
    77   38   40 1    
    78   40   41 1    
    79   40   42 1    
    80   40  102 1    
    81   41  103 1    
    82   41  104 1    
    83   41  105 1    
    84   42   43 am   BACKBONE|DICT|INTERRES
    85   42  106 1    
    86   43   44 2    
    87   43   45 1    
    88   45   46 1    
    89   45   49 1    
    90   45  107 1    
    91   46   47 1    
    92   46  108 1    
    93   46  109 1    
    94   47   48 1    
    95   48  110 1    
    96   48  111 1    
    97   49   50 am   BACKBONE|DICT|INTERRES
    98   49  112 1    
    99   50   51 2    
   100   50   52 1    
   101   52   53 1    
   102   52   54 1    
   103   52  113 1    
   104   53  114 1    
   105   53  115 1    
   106   53  116 1    
   107   54   55 am   BACKBONE|DICT|INTERRES
   108   54  117 1    
   109   55   56 2    
   110   55   57 1    
   111   57   58 1    
   112   57   59 1    
   113   57  118 1    
   114   58  119 1    
   115   58  120 1    
   116   58  121 1    
   117   59   60 am   BACKBONE|DICT|INTERRES
   118   59  122 1    
   119   60   61 2    
   120   60   62 1    
   121   62   63 1    
   122   62   64 1    
   123   62  123 1    
   124   63  124 1    
   125   63  125 1    
   126   63  126 1    
   127   64   65 am   BACKBONE|DICT|INTERRES
   128   64  127 1    
   129   65   66 2    
@<TRIPOS>SUBSTRUCTURE
     1 UNK         1 GROUP             0       ****    0 ROOT    
