@<TRIPOS>MOLECULE
3R135
127   129    1
SMALL
USER_CHARGES


@<TRIPOS>ATOM
      1 CA        -81.5733   29.1839  -80.0233 C.3       0 UNK        -0.1998 
      2 C         -80.7606   28.5329  -78.9144 C.2       0 UNK         0.4909 
      3 O         -80.3777   27.3690  -79.0385 O.2       0 UNK        -0.5240 
      4 N         -80.4846   29.2767  -77.8353 N.am      1 UNK        -0.4739 
      5 CA        -79.7657   28.7896  -76.6553 C.3       1 UNK         0.0864 
      6 C6        -79.2281   29.9655  -75.8033 C.3       11 UNK        -0.0881 
      7 S7        -77.8194   29.4714  -74.7588 S.3       11 UNK        -0.2682 
      8 C8        -78.5675   29.5696  -73.1005 C.3       11 UNK         0.0289 
      9 C9        -77.6657   28.9553  -72.0397 C.ar      11 UNK        -0.0687 
     10 C10       -77.3704   27.5917  -72.0955 C.ar      11 UNK        -0.0823 
     11 C11       -76.5570   26.9962  -71.1294 C.ar      11 UNK        -0.0830 
     12 C12       -76.0483   27.7756  -70.0860 C.ar      11 UNK        -0.1021 
     13 C13       -76.3510   29.1389  -70.0035 C.ar      11 UNK        -0.0753 
     14 C14       -77.1530   29.7262  -70.9900 C.ar      11 UNK        -0.0933 
     15 C15       -75.8735   29.9574  -68.8097 C.3       11 UNK         0.0166 
     16 S16       -74.5820   31.1677  -69.2343 S.3       11 UNK        -0.2615 
     17 C17       -73.0932   30.1188  -69.4032 C.3       11 UNK        -0.0865 
     18 CA        -72.1819   30.5959  -70.5714 C.3       10 UNK         0.0862 
     19 C         -70.7896   29.8924  -70.5944 C.2       10 UNK         0.5551 
     20 N         -70.1847   29.6657  -71.7544 N.am      10 UNK        -0.7319 
     21 O         -70.2296   29.5826  -69.5453 O.2       10 UNK        -0.5018 
     22 N         -72.9016   30.6191  -71.8557 N.am      10 UNK        -0.4509 
     23 C         -73.3547   29.5520  -72.5249 C.2       10 UNK         0.4899 
     24 O         -73.1091   28.3865  -72.2143 O.2       10 UNK        -0.4839 
     25 CA        -74.2666   29.8238  -73.7330 C.3       9 UNK         0.0222 
     26 CB        -74.4765   31.3184  -74.0685 C.3       9 UNK        -0.1966 
     27 N         -73.8525   29.0832  -74.9244 N.am      9 UNK        -0.4218 
     28 C         -72.6764   29.1466  -75.5682 C.2       9 UNK         0.5020 
     29 O         -71.7268   29.8456  -75.2100 O.2       9 UNK        -0.5274 
     30 CA        -72.5404   28.2879  -76.8433 C.3       8 UNK         0.0270 
     31 CB        -71.6890   27.0407  -76.5574 C.3       8 UNK        -0.1976 
     32 N         -73.8429   27.8905  -77.4002 N.am      8 UNK        -0.4313 
     33 C         -74.6686   28.7433  -78.0306 C.2       8 UNK         0.5041 
     34 O         -74.3353   29.8865  -78.3463 O.2       8 UNK        -0.5577 
     35 CA        -76.1259   28.3065  -78.2797 C.3       7 UNK         0.0284 
     36 CB        -76.6547   28.7469  -79.6618 C.3       7 UNK        -0.1958 
     37 N         -76.4022   26.8888  -78.0125 N.am      7 UNK        -0.4454 
     38 C         -76.0282   25.8276  -78.7397 C.2       7 UNK         0.5089 
     39 O         -75.3658   25.8940  -79.7760 O.2       7 UNK        -0.5125 
     40 CA        -76.4535   24.4588  -78.1689 C.3       6 UNK         0.0408 
     41 CB        -75.7984   23.2734  -78.9078 C.3       6 UNK        -0.1791 
     42 N         -76.2352   24.3381  -76.7187 N.am      6 UNK        -0.4762 
     43 C         -75.0695   24.4986  -76.0672 C.2       6 UNK         0.5007 
     44 O         -74.0402   24.8871  -76.6167 O.2       6 UNK        -0.5032 
     45 CA        -75.0275   24.1920  -74.5571 C.3       5 UNK         0.0783 
     46 C46       -74.9655   25.4974  -73.7291 C.3       11 UNK        -0.0857 
     47 S47       -74.6449   25.1638  -71.9629 S.3       11 UNK        -0.2512 
     48 C48       -76.2579   25.5054  -71.1934 C.3       11 UNK         0.0225 
     49 N         -76.1365   23.3232  -74.1451 N.am      5 UNK        -0.4615 
     50 C         -76.0797   21.9837  -74.1445 C.2       4 UNK         0.5053 
     51 O         -75.0920   21.3344  -74.4875 O.2       4 UNK        -0.5105 
     52 CA        -77.3549   21.2479  -73.7225 C.3       4 UNK         0.0263 
     53 CB        -77.6178   21.3844  -72.2112 C.3       4 UNK        -0.1981 
     54 N         -78.4774   21.7669  -74.4948 N.am      4 UNK        -0.4224 
     55 C         -79.6093   21.1304  -74.7954 C.2       3 UNK         0.4895 
     56 O         -79.8950   20.0054  -74.3809 O.2       3 UNK        -0.5091 
     57 CA        -80.5753   21.8947  -75.7266 C.3       3 UNK         0.0250 
     58 CB        -81.8750   21.1133  -75.9982 C.3       3 UNK        -0.1996 
     59 N         -80.9236   23.2362  -75.2393 N.am      3 UNK        -0.4254 
     60 C         -80.1243   24.3114  -75.2232 C.2       2 UNK         0.5004 
     61 O         -78.9315   24.2962  -75.5553 O.2       2 UNK        -0.5226 
     62 CA        -80.7470   25.6139  -74.7118 C.3       2 UNK         0.0269 
     63 CB        -80.5990   25.7262  -73.1850 C.3       2 UNK        -0.1926 
     64 N         -80.0597   26.7255  -75.3621 N.am      2 UNK        -0.4687 
     65 C         -80.6520   27.8270  -75.8363 C.2       1 UNK         0.5165 
     66 O         -81.8411   28.1003  -75.6522 O.2       1 UNK        -0.5079 
     67 H67       -81.8336   30.2154  -79.7866 H         1 UNK         0.0900 
     68 H68       -82.4971   28.6294  -80.1857 H         1 UNK         0.0900 
     69 H69       -81.0062   29.1823  -80.9538 H         1 UNK         0.0900 
     70 H70       -80.8551   30.2142  -77.7704 H         1 UNK         0.2959 
     71 H71       -78.9138   28.2203  -77.0299 H         1 UNK         0.1079 
     72 H72       -78.8597   30.7584  -76.4564 H         1 UNK         0.0837 
     73 H73       -80.0184   30.4216  -75.2033 H         1 UNK         0.0837 
     74 H74       -78.7861   30.6132  -72.8692 H         1 UNK         0.0685 
     75 H75       -79.5219   29.0410  -73.0993 H         1 UNK         0.0685 
     76 H76       -77.7762   26.9991  -72.9020 H         1 UNK         0.1434 
     77 H77       -75.4313   27.3132  -69.3277 H         1 UNK         0.1329 
     78 H78       -77.3915   30.7790  -70.9260 H         1 UNK         0.1335 
     79 H79       -76.7256   30.4959  -68.3926 H         1 UNK         0.0680 
     80 H80       -75.5090   29.3088  -68.0114 H         1 UNK         0.0680 
     81 H81       -73.3824   29.0770  -69.5500 H         1 UNK         0.1032 
     82 H82       -72.5569   30.1543  -68.4534 H         1 UNK         0.1032 
     83 H83       -71.9383   31.6401  -70.3718 H         1 UNK         0.0461 
     84 H84       -70.6456   29.9006  -72.6208 H         1 UNK         0.3453 
     85 H85       -69.2799   29.2228  -71.7645 H         1 UNK         0.3453 
     86 H86       -73.1358   31.5362  -72.2052 H         1 UNK         0.2984 
     87 H87       -75.2347   29.4140  -73.4501 H         1 UNK         0.0554 
     88 H88       -75.1638   31.4338  -74.9069 H         1 UNK         0.0847 
     89 H89       -73.5437   31.8147  -74.3388 H         1 UNK         0.0847 
     90 H90       -74.9171   31.8559  -73.2277 H         1 UNK         0.0847 
     91 H91       -74.5440   28.4511  -75.2958 H         1 UNK         0.3141 
     92 H92       -72.0171   28.8880  -77.5908 H         1 UNK         0.0743 
     93 H93       -72.1018   26.4467  -75.7415 H         1 UNK         0.0784 
     94 H94       -71.6100   26.3996  -77.4358 H         1 UNK         0.0784 
     95 H95       -70.6757   27.3224  -76.2684 H         1 UNK         0.0784 
     96 H96       -74.1390   26.9349  -77.2326 H         1 UNK         0.3213 
     97 H97       -76.7029   28.8585  -77.5379 H         1 UNK         0.0855 
     98 H98       -76.6215   29.8322  -79.7645 H         1 UNK         0.0814 
     99 H99       -77.6909   28.4419  -79.8069 H         1 UNK         0.0814 
    100 H100      -76.0631   28.3298  -80.4768 H         1 UNK         0.0814 
    101 H101      -76.9119   26.6927  -77.1639 H         1 UNK         0.3105 
    102 H102      -77.5315   24.3871  -78.3229 H         1 UNK         0.0547 
    103 H103      -76.0461   23.2886  -79.9699 H         1 UNK         0.0837 
    104 H104      -74.7111   23.2981  -78.8272 H         1 UNK         0.0837 
    105 H105      -76.1425   22.3190  -78.5097 H         1 UNK         0.0837 
    106 H106      -77.0635   24.1047  -76.1809 H         1 UNK         0.3020 
    107 H107      -74.0861   23.6618  -74.3911 H         1 UNK         0.1245 
    108 H108      -75.8775   26.0795  -73.8535 H         1 UNK         0.0781 
    109 H109      -74.1517   26.1359  -74.0788 H         1 UNK         0.0781 
    110 H110      -76.2562   25.0929  -70.1834 H         1 UNK         0.0836 
    111 H111      -77.0437   24.9748  -71.7322 H         1 UNK         0.0836 
    112 H112      -76.9764   23.7843  -73.8306 H         1 UNK         0.3022 
    113 H113      -77.2219   20.1905  -73.9619 H         1 UNK         0.0747 
    114 H114      -78.4748   20.7847  -71.9043 H         1 UNK         0.0793 
    115 H115      -76.7590   21.0404  -71.6333 H         1 UNK         0.0793 
    116 H116      -77.8149   22.4173  -71.9228 H         1 UNK         0.0793 
    117 H117      -78.3646   22.6903  -74.9051 H         1 UNK         0.3047 
    118 H118      -80.0579   22.0106  -76.6816 H         1 UNK         0.0822 
    119 H119      -82.5108   21.6352  -76.7136 H         1 UNK         0.0807 
    120 H120      -82.4514   20.9589  -75.0852 H         1 UNK         0.0807 
    121 H121      -81.6608   20.1299  -76.4193 H         1 UNK         0.0807 
    122 H122      -81.8678   23.3405  -74.8958 H         1 UNK         0.2946 
    123 H123      -81.8066   25.6240  -74.9793 H         1 UNK         0.1144 
    124 H124      -81.1991   24.9683  -72.6800 H         1 UNK         0.0793 
    125 H125      -80.9339   26.6981  -72.8221 H         1 UNK         0.0793 
    126 H126      -79.5675   25.5842  -72.8645 H         1 UNK         0.0793 
    127 H127      -79.0937   26.5343  -75.5885 H         1 UNK         0.2896 
@<TRIPOS>BOND
     1    1    2 1    
     2    1   67 1    
     3    1   68 1    
     4    1   69 1    
     5    2    3 2    
     6    2    4 am   BACKBONE|DICT|INTERRES
     7    4    5 1    
     8    4   70 1    
     9    5    6 1    
    10    5   65 1    
    11    5   71 1    
    12    6    7 1    
    13    6   72 1    
    14    6   73 1    
    15    7    8 1    
    16    8    9 1    
    17    8   74 1    
    18    8   75 1    
    19    9   10 ar   
    20    9   14 ar   
    21   10   11 ar   
    22   10   76 1    
    23   11   12 ar   
    24   11   48 1    
    25   12   13 ar   
    26   12   77 1    
    27   13   14 ar   
    28   13   15 1    
    29   14   78 1    
    30   15   16 1    
    31   15   79 1    
    32   15   80 1    
    33   16   17 1    
    34   17   18 1    
    35   17   81 1    
    36   17   82 1    
    37   18   19 1    
    38   18   22 1    
    39   18   83 1    
    40   19   20 am   BACKBONE|DICT|INTERRES
    41   19   21 2    
    42   20   84 1    
    43   20   85 1    
    44   22   23 am   BACKBONE|DICT|INTERRES
    45   22   86 1    
    46   23   24 2    
    47   23   25 1    
    48   25   26 1    
    49   25   27 1    
    50   25   87 1    
    51   26   88 1    
    52   26   89 1    
    53   26   90 1    
    54   27   28 am   BACKBONE|DICT|INTERRES
    55   27   91 1    
    56   28   29 2    
    57   28   30 1    
    58   30   31 1    
    59   30   32 1    
    60   30   92 1    
    61   31   93 1    
    62   31   94 1    
    63   31   95 1    
    64   32   33 am   BACKBONE|DICT|INTERRES
    65   32   96 1    
    66   33   34 2    
    67   33   35 1    
    68   35   36 1    
    69   35   37 1    
    70   35   97 1    
    71   36   98 1    
    72   36   99 1    
    73   36  100 1    
    74   37   38 am   BACKBONE|DICT|INTERRES
    75   37  101 1    
    76   38   39 2    
    77   38   40 1    
    78   40   41 1    
    79   40   42 1    
    80   40  102 1    
    81   41  103 1    
    82   41  104 1    
    83   41  105 1    
    84   42   43 am   BACKBONE|DICT|INTERRES
    85   42  106 1    
    86   43   44 2    
    87   43   45 1    
    88   45   46 1    
    89   45   49 1    
    90   45  107 1    
    91   46   47 1    
    92   46  108 1    
    93   46  109 1    
    94   47   48 1    
    95   48  110 1    
    96   48  111 1    
    97   49   50 am   BACKBONE|DICT|INTERRES
    98   49  112 1    
    99   50   51 2    
   100   50   52 1    
   101   52   53 1    
   102   52   54 1    
   103   52  113 1    
   104   53  114 1    
   105   53  115 1    
   106   53  116 1    
   107   54   55 am   BACKBONE|DICT|INTERRES
   108   54  117 1    
   109   55   56 2    
   110   55   57 1    
   111   57   58 1    
   112   57   59 1    
   113   57  118 1    
   114   58  119 1    
   115   58  120 1    
   116   58  121 1    
   117   59   60 am   BACKBONE|DICT|INTERRES
   118   59  122 1    
   119   60   61 2    
   120   60   62 1    
   121   62   63 1    
   122   62   64 1    
   123   62  123 1    
   124   63  124 1    
   125   63  125 1    
   126   63  126 1    
   127   64   65 am   BACKBONE|DICT|INTERRES
   128   64  127 1    
   129   65   66 2    
@<TRIPOS>SUBSTRUCTURE
     1 UNK         1 GROUP             0       ****    0 ROOT    
