@<TRIPOS>MOLECULE
3R135
127   129    1
SMALL
USER_CHARGES


@<TRIPOS>ATOM
      1 CA        -83.6075   24.8938  -69.7350 C.3       0 UNK        -0.1998 
      2 C         -82.1016   25.1026  -69.5985 C.2       0 UNK         0.4909 
      3 O         -81.4882   24.5093  -68.7136 O.2       0 UNK        -0.5240 
      4 N         -81.4591   25.9289  -70.4368 N.am      1 UNK        -0.4739 
      5 CA        -82.0381   26.6878  -71.5574 C.3       1 UNK         0.0864 
      6 C6        -81.1446   27.8898  -71.9546 C.3       11 UNK        -0.0881 
      7 S7        -80.8721   29.0581  -70.5747 S.3       11 UNK        -0.2682 
      8 C8        -80.6284   30.6393  -71.4504 C.3       11 UNK         0.0289 
      9 C9        -79.3615   30.6229  -72.2931 C.ar      11 UNK        -0.0687 
     10 C10       -79.4263   30.2566  -73.6402 C.ar      11 UNK        -0.0823 
     11 C11       -78.2605   30.1495  -74.4011 C.ar      11 UNK        -0.0830 
     12 C12       -77.0317   30.4885  -73.8307 C.ar      11 UNK        -0.1021 
     13 C13       -76.9512   30.8486  -72.4832 C.ar      11 UNK        -0.0753 
     14 C14       -78.1206   30.9219  -71.7182 C.ar      11 UNK        -0.0933 
     15 C15       -75.5870   31.0886  -71.8558 C.3       11 UNK         0.0166 
     16 S16       -74.6335   29.5367  -71.8028 S.3       11 UNK        -0.2615 
     17 C17       -72.9989   30.1270  -71.2492 C.3       11 UNK        -0.0865 
     18 CA        -72.1461   30.7697  -72.3768 C.3       10 UNK         0.0862 
     19 C         -70.7476   31.1656  -71.8268 C.2       10 UNK         0.5551 
     20 N         -70.5777   32.4089  -71.3982 N.am      10 UNK        -0.7319 
     21 O         -69.8381   30.3434  -71.7375 O.2       10 UNK        -0.5018 
     22 N         -72.0862   29.9206  -73.5777 N.am      10 UNK        -0.4509 
     23 C         -71.5124   30.2537  -74.7417 C.2       10 UNK         0.4899 
     24 O         -70.9553   31.3345  -74.9411 O.2       10 UNK        -0.4839 
     25 CA        -71.6265   29.2449  -75.9032 C.3       9 UNK         0.0222 
     26 CB        -70.3985   29.2711  -76.8380 C.3       9 UNK        -0.1966 
     27 N         -71.9498   27.8710  -75.5000 N.am      9 UNK        -0.4218 
     28 C         -71.1930   27.0159  -74.7952 C.2       9 UNK         0.5020 
     29 O         -70.0987   27.2956  -74.3052 O.2       9 UNK        -0.5274 
     30 CA        -71.7525   25.5913  -74.6257 C.3       8 UNK         0.0270 
     31 CB        -72.7815   25.5450  -73.4841 C.3       8 UNK        -0.1976 
     32 N         -72.3496   25.0688  -75.8606 N.am      8 UNK        -0.4313 
     33 C         -71.6627   24.8015  -76.9830 C.2       8 UNK         0.5041 
     34 O         -70.4375   24.8866  -77.0751 O.2       8 UNK        -0.5577 
     35 CA        -72.4758   24.3838  -78.2183 C.3       7 UNK         0.0284 
     36 CB        -72.7298   22.8671  -78.2240 C.3       7 UNK        -0.1958 
     37 N         -73.7480   25.1046  -78.2898 N.am      7 UNK        -0.4454 
     38 C         -73.8840   26.3440  -78.7845 C.2       7 UNK         0.5089 
     39 O         -72.9690   26.9733  -79.3158 O.2       7 UNK        -0.5125 
     40 CA        -75.2689   27.0055  -78.6556 C.3       6 UNK         0.0408 
     41 CB        -76.1072   26.7515  -79.9175 C.3       6 UNK        -0.1791 
     42 N         -76.0183   26.5536  -77.4825 N.am      6 UNK        -0.4762 
     43 C         -75.6749   26.8045  -76.2097 C.2       6 UNK         0.5007 
     44 O         -74.7042   27.4894  -75.8892 O.2       6 UNK        -0.5032 
     45 CA        -76.5196   26.1280  -75.1078 C.3       5 UNK         0.0783 
     46 C46       -77.5915   27.0774  -74.5269 C.3       11 UNK        -0.0857 
     47 S47       -78.7771   27.7818  -75.7425 S.3       11 UNK        -0.2512 
     48 C48       -78.3106   29.5484  -75.7973 C.3       11 UNK         0.0225 
     49 N         -77.0865   24.8388  -75.5107 N.am      5 UNK        -0.4615 
     50 C         -76.3743   23.7876  -75.9446 C.2       4 UNK         0.5053 
     51 O         -75.1433   23.7897  -75.9957 O.2       4 UNK        -0.5105 
     52 CA        -77.1392   22.5450  -76.4441 C.3       4 UNK         0.0263 
     53 CB        -77.0110   21.3975  -75.4300 C.3       4 UNK        -0.1981 
     54 N         -78.5594   22.7842  -76.7187 N.am      4 UNK        -0.4224 
     55 C         -79.0476   23.6438  -77.6252 C.2       3 UNK         0.4895 
     56 O         -78.3444   24.2541  -78.4320 O.2       3 UNK        -0.5091 
     57 CA        -80.5662   23.9135  -77.5957 C.3       3 UNK         0.0250 
     58 CB        -81.2610   23.1687  -78.7471 C.3       3 UNK        -0.1996 
     59 N         -81.2523   23.5930  -76.3320 N.am      3 UNK        -0.4254 
     60 C         -80.9442   24.0794  -75.1199 C.2       2 UNK         0.5004 
     61 O         -79.9576   24.7813  -74.8946 O.2       2 UNK        -0.5226 
     62 CA        -81.8508   23.6522  -73.9540 C.3       2 UNK         0.0269 
     63 CB        -81.4588   22.2503  -73.4575 C.3       2 UNK        -0.1926 
     64 N         -81.7540   24.5901  -72.8325 N.am      2 UNK        -0.4687 
     65 C         -82.3264   25.8022  -72.7926 C.2       1 UNK         0.5165 
     66 O         -83.0775   26.2247  -73.6728 O.2       1 UNK        -0.5079 
     67 H67       -83.9710   24.2282  -68.9523 H         1 UNK         0.0900 
     68 H68       -84.1441   25.8369  -69.6372 H         1 UNK         0.0900 
     69 H69       -83.8576   24.4404  -70.6932 H         1 UNK         0.0900 
     70 H70       -80.4687   26.0712  -70.2987 H         1 UNK         0.2959 
     71 H71       -82.9993   27.0957  -71.2392 H         1 UNK         0.1079 
     72 H72       -80.1730   27.5502  -72.3201 H         1 UNK         0.0837 
     73 H73       -81.6080   28.4350  -72.7788 H         1 UNK         0.0837 
     74 H74       -80.5711   31.4444  -70.7163 H         1 UNK         0.0685 
     75 H75       -81.5007   30.8535  -72.0700 H         1 UNK         0.0685 
     76 H76       -80.3753   29.9871  -74.0827 H         1 UNK         0.1434 
     77 H77       -76.1227   30.3902  -74.4092 H         1 UNK         0.1329 
     78 H78       -78.0646   31.1788  -70.6692 H         1 UNK         0.1335 
     79 H79       -75.6843   31.4904  -70.8461 H         1 UNK         0.0680 
     80 H80       -75.0499   31.8341  -72.4435 H         1 UNK         0.0680 
     81 H81       -72.4723   29.2715  -70.8211 H         1 UNK         0.1032 
     82 H82       -73.1407   30.8316  -70.4273 H         1 UNK         0.1032 
     83 H83       -72.6484   31.6879  -72.6869 H         1 UNK         0.0461 
     84 H84       -71.3203   33.0882  -71.4577 H         1 UNK         0.3453 
     85 H85       -69.6826   32.6789  -71.0208 H         1 UNK         0.3453 
     86 H86       -72.5316   29.0188  -73.5029 H         1 UNK         0.2984 
     87 H87       -72.4836   29.5766  -76.4910 H         1 UNK         0.0554 
     88 H88       -70.2561   30.2608  -77.2736 H         1 UNK         0.0847 
     89 H89       -70.5161   28.5698  -77.6646 H         1 UNK         0.0847 
     90 H90       -69.4807   29.0152  -76.3079 H         1 UNK         0.0847 
     91 H91       -72.8817   27.5617  -75.7739 H         1 UNK         0.3141 
     92 H92       -70.9211   24.9350  -74.3593 H         1 UNK         0.0743 
     93 H93       -72.3161   25.8138  -72.5349 H         1 UNK         0.0784 
     94 H94       -73.6017   26.2434  -73.6473 H         1 UNK         0.0784 
     95 H95       -73.2045   24.5469  -73.3666 H         1 UNK         0.0784 
     96 H96       -73.3485   24.8959  -75.8597 H         1 UNK         0.3213 
     97 H97       -71.8835   24.6249  -79.1041 H         1 UNK         0.0855 
     98 H98       -73.2922   22.5622  -79.1065 H         1 UNK         0.0814 
     99 H99       -71.7872   22.3183  -78.2357 H         1 UNK         0.0814 
    100 H100      -73.2824   22.5388  -77.3437 H         1 UNK         0.0814 
    101 H101      -74.5383   24.6764  -77.8234 H         1 UNK         0.3105 
    102 H102      -75.1132   28.0821  -78.5592 H         1 UNK         0.0547 
    103 H103      -76.3201   25.6903  -80.0541 H         1 UNK         0.0837 
    104 H104      -75.5849   27.0981  -80.8103 H         1 UNK         0.0837 
    105 H105      -77.0595   27.2804  -79.8741 H         1 UNK         0.0837 
    106 H106      -76.8324   25.9754  -77.6533 H         1 UNK         0.3020 
    107 H107      -75.8274   25.8999  -74.2956 H         1 UNK         0.1245 
    108 H108      -77.0855   27.8667  -73.9759 H         1 UNK         0.0781 
    109 H109      -78.1750   26.5494  -73.7713 H         1 UNK         0.0781 
    110 H110      -79.0337   30.0933  -76.4054 H         1 UNK         0.0836 
    111 H111      -77.3467   29.6454  -76.2998 H         1 UNK         0.0836 
    112 H112      -78.1005   24.7703  -75.4612 H         1 UNK         0.3022 
    113 H113      -76.6687   22.2341  -77.3790 H         1 UNK         0.0747 
    114 H114      -77.4825   21.6459  -74.4782 H         1 UNK         0.0793 
    115 H115      -77.4692   20.4821  -75.8050 H         1 UNK         0.0793 
    116 H116      -75.9631   21.1721  -75.2257 H         1 UNK         0.0793 
    117 H117      -79.2183   22.3409  -76.0960 H         1 UNK         0.3047 
    118 H118      -80.6915   24.9860  -77.7592 H         1 UNK         0.0822 
    119 H119      -82.3125   23.4461  -78.8242 H         1 UNK         0.0807 
    120 H120      -81.2056   22.0869  -78.6192 H         1 UNK         0.0807 
    121 H121      -80.7961   23.4074  -79.7051 H         1 UNK         0.0807 
    122 H122      -82.0621   22.9945  -76.4130 H         1 UNK         0.2946 
    123 H123      -82.8852   23.6314  -74.3056 H         1 UNK         0.1144 
    124 H124      -82.0980   21.9286  -72.6349 H         1 UNK         0.0793 
    125 H125      -80.4251   22.2192  -73.1102 H         1 UNK         0.0793 
    126 H126      -81.5590   21.5079  -74.2503 H         1 UNK         0.0793 
    127 H127      -81.1217   24.3416  -72.0856 H         1 UNK         0.2896 
@<TRIPOS>BOND
     1    1    2 1    
     2    1   67 1    
     3    1   68 1    
     4    1   69 1    
     5    2    3 2    
     6    2    4 am   BACKBONE|DICT|INTERRES
     7    4    5 1    
     8    4   70 1    
     9    5    6 1    
    10    5   65 1    
    11    5   71 1    
    12    6    7 1    
    13    6   72 1    
    14    6   73 1    
    15    7    8 1    
    16    8    9 1    
    17    8   74 1    
    18    8   75 1    
    19    9   10 ar   
    20    9   14 ar   
    21   10   11 ar   
    22   10   76 1    
    23   11   12 ar   
    24   11   48 1    
    25   12   13 ar   
    26   12   77 1    
    27   13   14 ar   
    28   13   15 1    
    29   14   78 1    
    30   15   16 1    
    31   15   79 1    
    32   15   80 1    
    33   16   17 1    
    34   17   18 1    
    35   17   81 1    
    36   17   82 1    
    37   18   19 1    
    38   18   22 1    
    39   18   83 1    
    40   19   20 am   BACKBONE|DICT|INTERRES
    41   19   21 2    
    42   20   84 1    
    43   20   85 1    
    44   22   23 am   BACKBONE|DICT|INTERRES
    45   22   86 1    
    46   23   24 2    
    47   23   25 1    
    48   25   26 1    
    49   25   27 1    
    50   25   87 1    
    51   26   88 1    
    52   26   89 1    
    53   26   90 1    
    54   27   28 am   BACKBONE|DICT|INTERRES
    55   27   91 1    
    56   28   29 2    
    57   28   30 1    
    58   30   31 1    
    59   30   32 1    
    60   30   92 1    
    61   31   93 1    
    62   31   94 1    
    63   31   95 1    
    64   32   33 am   BACKBONE|DICT|INTERRES
    65   32   96 1    
    66   33   34 2    
    67   33   35 1    
    68   35   36 1    
    69   35   37 1    
    70   35   97 1    
    71   36   98 1    
    72   36   99 1    
    73   36  100 1    
    74   37   38 am   BACKBONE|DICT|INTERRES
    75   37  101 1    
    76   38   39 2    
    77   38   40 1    
    78   40   41 1    
    79   40   42 1    
    80   40  102 1    
    81   41  103 1    
    82   41  104 1    
    83   41  105 1    
    84   42   43 am   BACKBONE|DICT|INTERRES
    85   42  106 1    
    86   43   44 2    
    87   43   45 1    
    88   45   46 1    
    89   45   49 1    
    90   45  107 1    
    91   46   47 1    
    92   46  108 1    
    93   46  109 1    
    94   47   48 1    
    95   48  110 1    
    96   48  111 1    
    97   49   50 am   BACKBONE|DICT|INTERRES
    98   49  112 1    
    99   50   51 2    
   100   50   52 1    
   101   52   53 1    
   102   52   54 1    
   103   52  113 1    
   104   53  114 1    
   105   53  115 1    
   106   53  116 1    
   107   54   55 am   BACKBONE|DICT|INTERRES
   108   54  117 1    
   109   55   56 2    
   110   55   57 1    
   111   57   58 1    
   112   57   59 1    
   113   57  118 1    
   114   58  119 1    
   115   58  120 1    
   116   58  121 1    
   117   59   60 am   BACKBONE|DICT|INTERRES
   118   59  122 1    
   119   60   61 2    
   120   60   62 1    
   121   62   63 1    
   122   62   64 1    
   123   62  123 1    
   124   63  124 1    
   125   63  125 1    
   126   63  126 1    
   127   64   65 am   BACKBONE|DICT|INTERRES
   128   64  127 1    
   129   65   66 2    
@<TRIPOS>SUBSTRUCTURE
     1 UNK         1 GROUP             0       ****    0 ROOT    
