@<TRIPOS>MOLECULE
3R135
127   129    1
SMALL
USER_CHARGES


@<TRIPOS>ATOM
      1 CA        -82.7860   25.4926  -70.2172 C.3       0 UNK        -0.1998 
      2 C         -82.2724   26.1996  -71.4614 C.2       0 UNK         0.4909 
      3 O         -81.5295   25.6021  -72.2382 O.2       0 UNK        -0.5240 
      4 N         -82.6762   27.4627  -71.6636 N.am      1 UNK        -0.4739 
      5 CA        -82.2523   28.3538  -72.7598 C.3       1 UNK         0.0864 
      6 C6        -80.7640   28.7859  -72.6451 C.3       11 UNK        -0.0881 
      7 S7        -80.4456   29.7772  -71.1428 S.3       11 UNK        -0.2682 
      8 C8        -79.5877   28.5979  -70.0497 C.3       11 UNK         0.0289 
      9 C9        -78.2337   28.1779  -70.6028 C.ar      11 UNK        -0.0687 
     10 C10       -78.0402   26.8774  -71.0749 C.ar      11 UNK        -0.0823 
     11 C11       -76.8056   26.4899  -71.6033 C.ar      11 UNK        -0.0830 
     12 C12       -75.7583   27.4147  -71.6618 C.ar      11 UNK        -0.1021 
     13 C13       -75.9368   28.7168  -71.1824 C.ar      11 UNK        -0.0753 
     14 C14       -77.1732   29.0877  -70.6430 C.ar      11 UNK        -0.0933 
     15 C15       -74.7938   29.7201  -71.2374 C.3       11 UNK         0.0166 
     16 S16       -75.1911   31.1316  -72.3163 S.3       11 UNK        -0.2615 
     17 C17       -73.5985   32.0253  -72.3247 C.3       11 UNK        -0.0865 
     18 CA        -73.0051   32.1790  -73.7501 C.3       10 UNK         0.0862 
     19 C         -71.6941   33.0204  -73.7166 C.2       10 UNK         0.5551 
     20 N         -70.5388   32.4844  -74.0939 N.am      10 UNK        -0.7319 
     21 O         -71.7299   34.1898  -73.3414 O.2       10 UNK        -0.5018 
     22 N         -72.8834   30.8832  -74.4357 N.am      10 UNK        -0.4509 
     23 C         -72.7646   30.7217  -75.7589 C.2       10 UNK         0.4899 
     24 O         -72.8270   31.6491  -76.5680 O.2       10 UNK        -0.4839 
     25 CA        -72.5319   29.2796  -76.2553 C.3       9 UNK         0.0222 
     26 CB        -71.8664   29.2323  -77.6463 C.3       9 UNK        -0.1966 
     27 N         -71.7887   28.4300  -75.3140 N.am      9 UNK        -0.4218 
     28 C         -70.5849   28.6570  -74.7675 C.2       9 UNK         0.5020 
     29 O         -69.9401   29.6938  -74.9304 O.2       9 UNK        -0.5274 
     30 CA        -69.9923   27.5425  -73.8845 C.3       8 UNK         0.0270 
     31 CB        -70.6170   27.5581  -72.4741 C.3       8 UNK        -0.1976 
     32 N         -70.0385   26.2046  -74.4977 N.am      8 UNK        -0.4313 
     33 C         -71.1139   25.4626  -74.7928 C.2       8 UNK         0.5041 
     34 O         -72.2721   25.7797  -74.5071 O.2       8 UNK        -0.5577 
     35 CA        -70.8599   24.1530  -75.5541 C.3       7 UNK         0.0284 
     36 CB        -70.9266   22.9505  -74.5991 C.3       7 UNK        -0.1958 
     37 N         -71.8645   23.9943  -76.6044 N.am      7 UNK        -0.4454 
     38 C         -71.8896   24.6919  -77.7493 C.2       7 UNK         0.5089 
     39 O         -70.9704   25.4166  -78.1314 O.2       7 UNK        -0.5125 
     40 CA        -73.1682   24.5755  -78.6006 C.3       6 UNK         0.0408 
     41 CB        -73.0196   23.4665  -79.6538 C.3       6 UNK        -0.1791 
     42 N         -74.3578   24.3152  -77.7843 N.am      6 UNK        -0.4762 
     43 C         -74.9300   25.2050  -76.9609 C.2       6 UNK         0.5007 
     44 O         -74.6142   26.3948  -76.9181 O.2       6 UNK        -0.5032 
     45 CA        -76.0436   24.6601  -76.0452 C.3       5 UNK         0.0783 
     46 C46       -76.3749   25.6150  -74.8725 C.3       11 UNK        -0.0857 
     47 S47       -77.4891   24.8049  -73.6774 S.3       11 UNK        -0.2512 
     48 C48       -76.6151   25.0677  -72.1058 C.3       11 UNK         0.0225 
     49 N         -77.2424   24.3298  -76.8187 N.am      5 UNK        -0.4615 
     50 C         -77.4176   23.2441  -77.5765 C.2       4 UNK         0.5053 
     51 O         -76.5499   22.3828  -77.7376 O.2       4 UNK        -0.5105 
     52 CA        -78.8031   23.0937  -78.2350 C.3       4 UNK         0.0263 
     53 CB        -78.8673   21.9004  -79.2068 C.3       4 UNK        -0.1981 
     54 N         -79.8670   22.9509  -77.2354 N.am      4 UNK        -0.4224 
     55 C         -80.3916   23.9467  -76.5080 C.2       3 UNK         0.4895 
     56 O         -80.0291   25.1228  -76.6000 O.2       3 UNK        -0.5091 
     57 CA        -81.4721   23.5414  -75.4887 C.3       3 UNK         0.0250 
     58 CB        -80.8312   22.9939  -74.2036 C.3       3 UNK        -0.1996 
     59 N         -82.3614   24.6540  -75.1432 N.am      3 UNK        -0.4254 
     60 C         -83.2835   25.1656  -75.9728 C.2       2 UNK         0.5004 
     61 O         -83.4991   24.7198  -77.1015 O.2       2 UNK        -0.5226 
     62 CA        -84.1427   26.3437  -75.4725 C.3       2 UNK         0.0269 
     63 CB        -85.5950   25.8903  -75.2437 C.3       2 UNK        -0.1926 
     64 N         -83.6491   26.9664  -74.2420 N.am      2 UNK        -0.4687 
     65 C         -82.6154   27.8170  -74.1680 C.2       1 UNK         0.5165 
     66 O         -81.9837   28.1918  -75.1571 O.2       1 UNK        -0.5079 
     67 H67       -81.9491   25.1870  -69.5899 H         1 UNK         0.0900 
     68 H68       -83.3456   24.6005  -70.4972 H         1 UNK         0.0900 
     69 H69       -83.4391   26.1322  -69.6239 H         1 UNK         0.0900 
     70 H70       -83.3007   27.8876  -70.9917 H         1 UNK         0.2959 
     71 H71       -82.8565   29.2567  -72.6560 H         1 UNK         0.1079 
     72 H72       -80.1051   27.9181  -72.6850 H         1 UNK         0.0837 
     73 H73       -80.4761   29.4139  -73.4900 H         1 UNK         0.0837 
     74 H74       -80.2270   27.7309  -69.8804 H         1 UNK         0.0685 
     75 H75       -79.4445   29.0648  -69.0742 H         1 UNK         0.0685 
     76 H76       -78.8559   26.1666  -71.0486 H         1 UNK         0.1434 
     77 H77       -74.8046   27.1192  -72.0781 H         1 UNK         0.1329 
     78 H78       -77.3178   30.0949  -70.2762 H         1 UNK         0.1335 
     79 H79       -74.5835   30.0826  -70.2302 H         1 UNK         0.0680 
     80 H80       -73.8810   29.2410  -71.5952 H         1 UNK         0.0680 
     81 H81       -72.8849   31.5231  -71.6688 H         1 UNK         0.1032 
     82 H82       -73.7714   33.0071  -71.8795 H         1 UNK         0.1032 
     83 H83       -73.7171   32.7733  -74.3262 H         1 UNK         0.0461 
     84 H84       -69.7045   33.0483  -74.0673 H         1 UNK         0.3453 
     85 H85       -70.4835   31.5217  -74.4117 H         1 UNK         0.3453 
     86 H86       -72.8270   30.0677  -73.8457 H         1 UNK         0.2984 
     87 H87       -73.5222   28.8325  -76.3474 H         1 UNK         0.0554 
     88 H88       -71.7475   28.2051  -77.9916 H         1 UNK         0.0847 
     89 H89       -70.8814   29.7003  -77.6373 H         1 UNK         0.0847 
     90 H90       -72.4700   29.7530  -78.3905 H         1 UNK         0.0847 
     91 H91       -72.2188   27.5324  -75.0894 H         1 UNK         0.3141 
     92 H92       -68.9316   27.7719  -73.7686 H         1 UNK         0.0743 
     93 H93       -71.6896   27.3632  -72.4936 H         1 UNK         0.0784 
     94 H94       -70.1538   26.8119  -71.8287 H         1 UNK         0.0784 
     95 H95       -70.4754   28.5298  -71.9989 H         1 UNK         0.0784 
     96 H96       -69.1390   25.8533  -74.7985 H         1 UNK         0.3213 
     97 H97       -69.8705   24.1823  -76.0160 H         1 UNK         0.0855 
     98 H98       -71.8966   22.8794  -74.1049 H         1 UNK         0.0814 
     99 H99       -70.1693   23.0310  -73.8181 H         1 UNK         0.0814 
    100 H100      -70.7485   22.0133  -75.1269 H         1 UNK         0.0814 
    101 H101      -72.6855   23.4599  -76.3642 H         1 UNK         0.3105 
    102 H102      -73.3095   25.5252  -79.1210 H         1 UNK         0.0547 
    103 H103      -72.1538   23.6492  -80.2917 H         1 UNK         0.0837 
    104 H104      -72.8852   22.4864  -79.1946 H         1 UNK         0.0837 
    105 H105      -73.8940   23.4161  -80.3029 H         1 UNK         0.0837 
    106 H106      -74.7579   23.3826  -77.8237 H         1 UNK         0.3020 
    107 H107      -75.6553   23.7372  -75.6073 H         1 UNK         0.1245 
    108 H108      -76.8495   26.5299  -75.2317 H         1 UNK         0.0781 
    109 H109      -75.4604   25.9243  -74.3622 H         1 UNK         0.0781 
    110 H110      -75.5575   24.8239  -72.2199 H         1 UNK         0.0836 
    111 H111      -77.0091   24.3705  -71.3648 H         1 UNK         0.0836 
    112 H112      -78.0358   24.9532  -76.7055 H         1 UNK         0.3022 
    113 H113      -78.9862   24.0015  -78.8143 H         1 UNK         0.0747 
    114 H114      -79.8331   21.8498  -79.7099 H         1 UNK         0.0793 
    115 H115      -78.1048   21.9871  -79.9821 H         1 UNK         0.0793 
    116 H116      -78.7049   20.9510  -78.6947 H         1 UNK         0.0793 
    117 H117      -80.1924   22.0095  -77.0674 H         1 UNK         0.3047 
    118 H118      -82.0798   22.7503  -75.9335 H         1 UNK         0.0822 
    119 H119      -80.1721   22.1510  -74.4146 H         1 UNK         0.0807 
    120 H120      -81.5877   22.6467  -73.4997 H         1 UNK         0.0807 
    121 H121      -80.2353   23.7547  -73.6998 H         1 UNK         0.0807 
    122 H122      -82.2047   25.0976  -74.2450 H         1 UNK         0.2946 
    123 H123      -84.1407   27.0953  -76.2655 H         1 UNK         0.1144 
    124 H124      -86.0177   25.4564  -76.1511 H         1 UNK         0.0793 
    125 H125      -86.2332   26.7280  -74.9617 H         1 UNK         0.0793 
    126 H126      -85.6633   25.1352  -74.4596 H         1 UNK         0.0793 
    127 H127      -84.1099   26.7069  -73.3816 H         1 UNK         0.2896 
@<TRIPOS>BOND
     1    1    2 1    
     2    1   67 1    
     3    1   68 1    
     4    1   69 1    
     5    2    3 2    
     6    2    4 am   BACKBONE|DICT|INTERRES
     7    4    5 1    
     8    4   70 1    
     9    5    6 1    
    10    5   65 1    
    11    5   71 1    
    12    6    7 1    
    13    6   72 1    
    14    6   73 1    
    15    7    8 1    
    16    8    9 1    
    17    8   74 1    
    18    8   75 1    
    19    9   10 ar   
    20    9   14 ar   
    21   10   11 ar   
    22   10   76 1    
    23   11   12 ar   
    24   11   48 1    
    25   12   13 ar   
    26   12   77 1    
    27   13   14 ar   
    28   13   15 1    
    29   14   78 1    
    30   15   16 1    
    31   15   79 1    
    32   15   80 1    
    33   16   17 1    
    34   17   18 1    
    35   17   81 1    
    36   17   82 1    
    37   18   19 1    
    38   18   22 1    
    39   18   83 1    
    40   19   20 am   BACKBONE|DICT|INTERRES
    41   19   21 2    
    42   20   84 1    
    43   20   85 1    
    44   22   23 am   BACKBONE|DICT|INTERRES
    45   22   86 1    
    46   23   24 2    
    47   23   25 1    
    48   25   26 1    
    49   25   27 1    
    50   25   87 1    
    51   26   88 1    
    52   26   89 1    
    53   26   90 1    
    54   27   28 am   BACKBONE|DICT|INTERRES
    55   27   91 1    
    56   28   29 2    
    57   28   30 1    
    58   30   31 1    
    59   30   32 1    
    60   30   92 1    
    61   31   93 1    
    62   31   94 1    
    63   31   95 1    
    64   32   33 am   BACKBONE|DICT|INTERRES
    65   32   96 1    
    66   33   34 2    
    67   33   35 1    
    68   35   36 1    
    69   35   37 1    
    70   35   97 1    
    71   36   98 1    
    72   36   99 1    
    73   36  100 1    
    74   37   38 am   BACKBONE|DICT|INTERRES
    75   37  101 1    
    76   38   39 2    
    77   38   40 1    
    78   40   41 1    
    79   40   42 1    
    80   40  102 1    
    81   41  103 1    
    82   41  104 1    
    83   41  105 1    
    84   42   43 am   BACKBONE|DICT|INTERRES
    85   42  106 1    
    86   43   44 2    
    87   43   45 1    
    88   45   46 1    
    89   45   49 1    
    90   45  107 1    
    91   46   47 1    
    92   46  108 1    
    93   46  109 1    
    94   47   48 1    
    95   48  110 1    
    96   48  111 1    
    97   49   50 am   BACKBONE|DICT|INTERRES
    98   49  112 1    
    99   50   51 2    
   100   50   52 1    
   101   52   53 1    
   102   52   54 1    
   103   52  113 1    
   104   53  114 1    
   105   53  115 1    
   106   53  116 1    
   107   54   55 am   BACKBONE|DICT|INTERRES
   108   54  117 1    
   109   55   56 2    
   110   55   57 1    
   111   57   58 1    
   112   57   59 1    
   113   57  118 1    
   114   58  119 1    
   115   58  120 1    
   116   58  121 1    
   117   59   60 am   BACKBONE|DICT|INTERRES
   118   59  122 1    
   119   60   61 2    
   120   60   62 1    
   121   62   63 1    
   122   62   64 1    
   123   62  123 1    
   124   63  124 1    
   125   63  125 1    
   126   63  126 1    
   127   64   65 am   BACKBONE|DICT|INTERRES
   128   64  127 1    
   129   65   66 2    
@<TRIPOS>SUBSTRUCTURE
     1 UNK         1 GROUP             0       ****    0 ROOT    
