@<TRIPOS>MOLECULE
3R135
127   129    1
SMALL
USER_CHARGES


@<TRIPOS>ATOM
      1 CA        -85.3002   26.8986  -72.5718 C.3       0 UNK        -0.1998 
      2 C         -83.8875   26.3347  -72.6273 C.2       0 UNK         0.4909 
      3 O         -83.7051   25.1351  -72.4179 O.2       0 UNK        -0.5240 
      4 N         -82.8983   27.1965  -72.9082 N.am      1 UNK        -0.4739 
      5 CA        -81.4628   26.8867  -73.0182 C.3       1 UNK         0.0864 
      6 C6        -80.8063   26.4523  -71.6750 C.3       11 UNK        -0.0881 
      7 S7        -81.0630   27.6623  -70.3278 S.3       11 UNK        -0.2682 
      8 C8        -79.3681   27.8999  -69.6788 C.3       11 UNK         0.0289 
      9 C9        -78.4529   28.8369  -70.4750 C.ar      11 UNK        -0.0687 
     10 C10       -78.8296   29.4317  -71.6863 C.ar      11 UNK        -0.0823 
     11 C11       -77.9498   30.2666  -72.3814 C.ar      11 UNK        -0.0830 
     12 C12       -76.6871   30.5346  -71.8472 C.ar      11 UNK        -0.1021 
     13 C13       -76.3011   29.9688  -70.6298 C.ar      11 UNK        -0.0753 
     14 C14       -77.1840   29.1189  -69.9552 C.ar      11 UNK        -0.0933 
     15 C15       -74.9413   30.2993  -70.0304 C.3       11 UNK         0.0166 
     16 S16       -73.8212   28.8646  -69.9968 S.3       11 UNK        -0.2615 
     17 C17       -73.5520   28.5377  -71.7744 C.3       11 UNK        -0.0865 
     18 CA        -72.5256   29.4664  -72.4830 C.3       10 UNK         0.0862 
     19 C         -71.0902   29.3525  -71.8741 C.2       10 UNK         0.5551 
     20 N         -70.1436   28.6672  -72.5065 N.am      10 UNK        -0.7319 
     21 O         -70.8186   29.9229  -70.8208 O.2       10 UNK        -0.5018 
     22 N         -72.5907   29.2372  -73.9336 N.am      10 UNK        -0.4509 
     23 C         -71.9565   29.9419  -74.8812 C.2       10 UNK         0.4899 
     24 O         -71.3819   31.0116  -74.6736 O.2       10 UNK        -0.4839 
     25 CA        -71.9427   29.3105  -76.2921 C.3       9 UNK         0.0222 
     26 CB        -70.7522   29.7856  -77.1518 C.3       9 UNK        -0.1966 
     27 N         -72.0138   27.8404  -76.2484 N.am      9 UNK        -0.4218 
     28 C         -71.1435   27.0070  -75.6539 C.2       9 UNK         0.5020 
     29 O         -70.0722   27.3680  -75.1655 O.2       9 UNK        -0.5274 
     30 CA        -71.5688   25.5413  -75.4812 C.3       8 UNK         0.0270 
     31 CB        -72.1348   25.3281  -74.0676 C.3       8 UNK        -0.1976 
     32 N         -72.5651   25.1086  -76.4614 N.am      8 UNK        -0.4313 
     33 C         -72.2646   24.6221  -77.6726 C.2       8 UNK         0.5041 
     34 O         -71.1163   24.5118  -78.1052 O.2       8 UNK        -0.5577 
     35 CA        -73.4442   24.1666  -78.5449 C.3       7 UNK         0.0284 
     36 CB        -73.7751   22.6901  -78.2702 C.3       7 UNK        -0.1958 
     37 N         -74.6407   24.9934  -78.3510 N.am      7 UNK        -0.4454 
     38 C         -74.7780   26.2152  -78.8857 C.2       7 UNK         0.5089 
     39 O         -73.9067   26.7652  -79.5604 O.2       7 UNK        -0.5125 
     40 CA        -76.1044   26.9549  -78.6493 C.3       6 UNK         0.0408 
     41 CB        -77.1719   26.4765  -79.6459 C.3       6 UNK        -0.1791 
     42 N         -76.6394   26.8743  -77.2889 N.am      6 UNK        -0.4762 
     43 C         -76.0306   27.3316  -76.1846 C.2       6 UNK         0.5007 
     44 O         -74.8470   27.6656  -76.1358 O.2       6 UNK        -0.5032 
     45 CA        -76.9021   27.4219  -74.9178 C.3       5 UNK         0.0783 
     46 C46       -78.0745   28.4222  -75.0855 C.3       11 UNK        -0.0857 
     47 S47       -77.5025   30.1564  -75.1222 S.3       11 UNK        -0.2512 
     48 C48       -78.3718   30.8939  -73.7021 C.3       11 UNK         0.0225 
     49 N         -77.3699   26.0817  -74.5784 N.am      5 UNK        -0.4615 
     50 C         -76.6331   25.1826  -73.9120 C.2       4 UNK         0.5053 
     51 O         -75.5780   25.4538  -73.3394 O.2       4 UNK        -0.5105 
     52 CA        -77.1281   23.7255  -73.9140 C.3       4 UNK         0.0263 
     53 CB        -77.8229   23.3795  -72.5872 C.3       4 UNK        -0.1981 
     54 N         -78.0150   23.4218  -75.0439 N.am      4 UNK        -0.4224 
     55 C         -77.6015   23.3527  -76.3196 C.2       3 UNK         0.4895 
     56 O         -76.4342   23.5265  -76.6672 O.2       3 UNK        -0.5091 
     57 CA        -78.6623   23.0940  -77.4033 C.3       3 UNK         0.0250 
     58 CB        -78.8343   21.5847  -77.6365 C.3       3 UNK        -0.1996 
     59 N         -79.9666   23.6980  -77.1191 N.am      3 UNK        -0.4254 
     60 C         -80.1932   25.0084  -76.9475 C.2       2 UNK         0.5004 
     61 O         -79.3098   25.8668  -77.0110 O.2       2 UNK        -0.5226 
     62 CA        -81.6338   25.4422  -76.6049 C.3       2 UNK         0.0269 
     63 CB        -82.6480   24.2765  -76.5306 C.3       2 UNK        -0.1926 
     64 N         -81.6952   26.2312  -75.3666 N.am      2 UNK        -0.4687 
     65 C         -81.1905   25.8922  -74.1683 C.2       1 UNK         0.5165 
     66 O         -80.5615   24.8527  -73.9586 O.2       1 UNK        -0.5079 
     67 H67       -85.9322   26.4006  -73.3069 H         1 UNK         0.0900 
     68 H68       -85.7305   26.7334  -71.5840 H         1 UNK         0.0900 
     69 H69       -85.3222   27.9693  -72.7758 H         1 UNK         0.0900 
     70 H70       -83.1368   28.1671  -73.0597 H         1 UNK         0.2959 
     71 H71       -80.9847   27.8138  -73.3312 H         1 UNK         0.1079 
     72 H72       -81.2024   25.4897  -71.3463 H         1 UNK         0.0837 
     73 H73       -79.7336   26.3037  -71.8173 H         1 UNK         0.0837 
     74 H74       -79.4607   28.2963  -68.6659 H         1 UNK         0.0685 
     75 H75       -78.8858   26.9253  -69.5806 H         1 UNK         0.0685 
     76 H76       -79.8108   29.2586  -72.0981 H         1 UNK         0.1434 
     77 H77       -76.0092   31.1888  -72.3795 H         1 UNK         0.1329 
     78 H78       -76.8796   28.6788  -69.0150 H         1 UNK         0.1335 
     79 H79       -74.4624   31.1168  -70.5717 H         1 UNK         0.0680 
     80 H80       -75.0821   30.6556  -69.0086 H         1 UNK         0.0680 
     81 H81       -73.2390   27.4961  -71.8721 H         1 UNK         0.1032 
     82 H82       -74.5182   28.5940  -72.2786 H         1 UNK         0.1032 
     83 H83       -72.8449   30.4978  -72.3249 H         1 UNK         0.0461 
     84 H84       -70.3062   28.2388  -73.4113 H         1 UNK         0.3453 
     85 H85       -69.2244   28.6210  -72.0969 H         1 UNK         0.3453 
     86 H86       -73.0590   28.3932  -74.2282 H         1 UNK         0.2984 
     87 H87       -72.8588   29.6428  -76.7827 H         1 UNK         0.0554 
     88 H88       -70.7852   30.8653  -77.3023 H         1 UNK         0.0847 
     89 H89       -70.7656   29.3215  -78.1381 H         1 UNK         0.0847 
     90 H90       -69.7947   29.5537  -76.6841 H         1 UNK         0.0847 
     91 H91       -72.9095   27.4605  -76.5403 H         1 UNK         0.3141 
     92 H92       -70.6731   24.9239  -75.5816 H         1 UNK         0.0743 
     93 H93       -73.0240   25.9346  -73.8944 H         1 UNK         0.0784 
     94 H94       -72.4039   24.2850  -73.8993 H         1 UNK         0.0784 
     95 H95       -71.4020   25.5998  -73.3059 H         1 UNK         0.0784 
     96 H96       -73.5381   25.1695  -76.1946 H         1 UNK         0.3213 
     97 H97       -73.1346   24.2482  -79.5900 H         1 UNK         0.0855 
     98 H98       -74.0332   22.5199  -77.2234 H         1 UNK         0.0814 
     99 H99       -72.9206   22.0508  -78.5005 H         1 UNK         0.0814 
    100 H100      -74.6106   22.3487  -78.8825 H         1 UNK         0.0814 
    101 H101      -75.3919   24.5962  -77.7883 H         1 UNK         0.3105 
    102 H102      -75.9191   28.0127  -78.8477 H         1 UNK         0.0547 
    103 H103      -76.8190   26.5724  -80.6737 H         1 UNK         0.0837 
    104 H104      -77.4316   25.4302  -79.4869 H         1 UNK         0.0837 
    105 H105      -78.0864   27.0642  -79.5617 H         1 UNK         0.0837 
    106 H106      -77.6070   26.5656  -77.2096 H         1 UNK         0.3020 
    107 H107      -76.2697   27.7857  -74.1035 H         1 UNK         0.1245 
    108 H108      -78.7775   28.2975  -74.2634 H         1 UNK         0.0781 
    109 H109      -78.6513   28.2270  -75.9908 H         1 UNK         0.0781 
    110 H110      -79.4486   30.8039  -73.8541 H         1 UNK         0.0836 
    111 H111      -78.1582   31.9635  -73.6756 H         1 UNK         0.0836 
    112 H112      -78.2045   25.7622  -75.0538 H         1 UNK         0.3022 
    113 H113      -76.2458   23.0875  -74.0044 H         1 UNK         0.0747 
    114 H114      -78.1502   22.3397  -72.5686 H         1 UNK         0.0793 
    115 H115      -77.1416   23.5193  -71.7464 H         1 UNK         0.0793 
    116 H116      -78.6926   24.0098  -72.4034 H         1 UNK         0.0793 
    117 H117      -79.0042   23.3477  -74.8398 H         1 UNK         0.3047 
    118 H118      -78.2931   23.5377  -78.3294 H         1 UNK         0.0822 
    119 H119      -79.5063   21.3851  -78.4718 H         1 UNK         0.0807 
    120 H120      -79.2337   21.0814  -76.7549 H         1 UNK         0.0807 
    121 H121      -77.8777   21.1156  -77.8742 H         1 UNK         0.0807 
    122 H122      -80.7482   23.0648  -77.0275 H         1 UNK         0.2946 
    123 H123      -81.9446   26.1035  -77.4159 H         1 UNK         0.1144 
    124 H124      -83.6540   24.6505  -76.3375 H         1 UNK         0.0793 
    125 H125      -82.4062   23.5709  -75.7339 H         1 UNK         0.0793 
    126 H126      -82.6943   23.7241  -77.4705 H         1 UNK         0.0793 
    127 H127      -82.1848   27.1126  -75.4384 H         1 UNK         0.2896 
@<TRIPOS>BOND
     1    1    2 1    
     2    1   67 1    
     3    1   68 1    
     4    1   69 1    
     5    2    3 2    
     6    2    4 am   BACKBONE|DICT|INTERRES
     7    4    5 1    
     8    4   70 1    
     9    5    6 1    
    10    5   65 1    
    11    5   71 1    
    12    6    7 1    
    13    6   72 1    
    14    6   73 1    
    15    7    8 1    
    16    8    9 1    
    17    8   74 1    
    18    8   75 1    
    19    9   10 ar   
    20    9   14 ar   
    21   10   11 ar   
    22   10   76 1    
    23   11   12 ar   
    24   11   48 1    
    25   12   13 ar   
    26   12   77 1    
    27   13   14 ar   
    28   13   15 1    
    29   14   78 1    
    30   15   16 1    
    31   15   79 1    
    32   15   80 1    
    33   16   17 1    
    34   17   18 1    
    35   17   81 1    
    36   17   82 1    
    37   18   19 1    
    38   18   22 1    
    39   18   83 1    
    40   19   20 am   BACKBONE|DICT|INTERRES
    41   19   21 2    
    42   20   84 1    
    43   20   85 1    
    44   22   23 am   BACKBONE|DICT|INTERRES
    45   22   86 1    
    46   23   24 2    
    47   23   25 1    
    48   25   26 1    
    49   25   27 1    
    50   25   87 1    
    51   26   88 1    
    52   26   89 1    
    53   26   90 1    
    54   27   28 am   BACKBONE|DICT|INTERRES
    55   27   91 1    
    56   28   29 2    
    57   28   30 1    
    58   30   31 1    
    59   30   32 1    
    60   30   92 1    
    61   31   93 1    
    62   31   94 1    
    63   31   95 1    
    64   32   33 am   BACKBONE|DICT|INTERRES
    65   32   96 1    
    66   33   34 2    
    67   33   35 1    
    68   35   36 1    
    69   35   37 1    
    70   35   97 1    
    71   36   98 1    
    72   36   99 1    
    73   36  100 1    
    74   37   38 am   BACKBONE|DICT|INTERRES
    75   37  101 1    
    76   38   39 2    
    77   38   40 1    
    78   40   41 1    
    79   40   42 1    
    80   40  102 1    
    81   41  103 1    
    82   41  104 1    
    83   41  105 1    
    84   42   43 am   BACKBONE|DICT|INTERRES
    85   42  106 1    
    86   43   44 2    
    87   43   45 1    
    88   45   46 1    
    89   45   49 1    
    90   45  107 1    
    91   46   47 1    
    92   46  108 1    
    93   46  109 1    
    94   47   48 1    
    95   48  110 1    
    96   48  111 1    
    97   49   50 am   BACKBONE|DICT|INTERRES
    98   49  112 1    
    99   50   51 2    
   100   50   52 1    
   101   52   53 1    
   102   52   54 1    
   103   52  113 1    
   104   53  114 1    
   105   53  115 1    
   106   53  116 1    
   107   54   55 am   BACKBONE|DICT|INTERRES
   108   54  117 1    
   109   55   56 2    
   110   55   57 1    
   111   57   58 1    
   112   57   59 1    
   113   57  118 1    
   114   58  119 1    
   115   58  120 1    
   116   58  121 1    
   117   59   60 am   BACKBONE|DICT|INTERRES
   118   59  122 1    
   119   60   61 2    
   120   60   62 1    
   121   62   63 1    
   122   62   64 1    
   123   62  123 1    
   124   63  124 1    
   125   63  125 1    
   126   63  126 1    
   127   64   65 am   BACKBONE|DICT|INTERRES
   128   64  127 1    
   129   65   66 2    
@<TRIPOS>SUBSTRUCTURE
     1 UNK         1 GROUP             0       ****    0 ROOT    
