@<TRIPOS>MOLECULE
3R135
127   129    1
SMALL
USER_CHARGES


@<TRIPOS>ATOM
      1 CA        -79.9020   21.9275  -71.9152 C.3       0 UNK        -0.1998 
      2 C         -80.5350   23.2698  -72.2459 C.2       0 UNK         0.4909 
      3 O         -81.4363   23.3312  -73.0830 O.2       0 UNK        -0.5240 
      4 N         -80.0678   24.3479  -71.6018 N.am      1 UNK        -0.4739 
      5 CA        -80.5119   25.7289  -71.8232 C.3       1 UNK         0.0864 
      6 C6        -79.9161   26.7498  -70.8066 C.3       11 UNK        -0.0881 
      7 S7        -78.3310   26.3013  -69.9996 S.3       11 UNK        -0.2682 
      8 C8        -77.0438   26.9325  -71.1249 C.3       11 UNK         0.0289 
      9 C9        -77.1997   28.4098  -71.4542 C.ar      11 UNK        -0.0687 
     10 C10       -77.6040   28.7869  -72.7347 C.ar      11 UNK        -0.0823 
     11 C11       -77.7696   30.1312  -73.0723 C.ar      11 UNK        -0.0830 
     12 C12       -77.5195   31.1087  -72.1047 C.ar      11 UNK        -0.1021 
     13 C13       -77.0965   30.7493  -70.8203 C.ar      11 UNK        -0.0753 
     14 C14       -76.9365   29.3962  -70.4997 C.ar      11 UNK        -0.0933 
     15 C15       -76.8262   31.8266  -69.7789 C.3       11 UNK         0.0166 
     16 S16       -75.4260   32.8973  -70.2421 S.3       11 UNK        -0.2615 
     17 C17       -74.0392   31.7108  -70.2526 C.3       11 UNK        -0.0865 
     18 CA        -73.6367   31.2461  -71.6807 C.3       10 UNK         0.0862 
     19 C         -72.7428   32.3008  -72.4019 C.2       10 UNK         0.5551 
     20 N         -71.4425   32.0723  -72.5475 N.am      10 UNK        -0.7319 
     21 O         -73.2346   33.3353  -72.8450 O.2       10 UNK        -0.5018 
     22 N         -73.0730   29.8870  -71.6336 N.am      10 UNK        -0.4509 
     23 C         -72.8776   29.0886  -72.6906 C.2       10 UNK         0.4899 
     24 O         -73.1567   29.3977  -73.8501 O.2       10 UNK        -0.4839 
     25 CA        -72.2285   27.7314  -72.3612 C.3       9 UNK         0.0222 
     26 CB        -73.1648   26.8421  -71.5133 C.3       9 UNK        -0.1966 
     27 N         -71.7202   27.0077  -73.5351 N.am      9 UNK        -0.4218 
     28 C         -72.4169   26.3821  -74.4958 C.2       9 UNK         0.5020 
     29 O         -73.6455   26.3311  -74.5493 O.2       9 UNK        -0.5274 
     30 CA        -71.5736   25.6397  -75.5425 C.3       8 UNK         0.0270 
     31 CB        -70.8006   24.4715  -74.8890 C.3       8 UNK        -0.1976 
     32 N         -72.4153   25.1261  -76.6260 N.am      8 UNK        -0.4313 
     33 C         -71.9494   24.7202  -77.8158 C.2       8 UNK         0.5041 
     34 O         -70.7714   24.8340  -78.1596 O.2       8 UNK        -0.5577 
     35 CA        -72.9361   24.0568  -78.7865 C.3       7 UNK         0.0284 
     36 CB        -73.2605   22.6232  -78.3320 C.3       7 UNK        -0.1958 
     37 N         -74.1747   24.8214  -78.9041 N.am      7 UNK        -0.4454 
     38 C         -74.5060   25.5898  -79.9499 C.2       7 UNK         0.5089 
     39 O         -73.7949   25.7364  -80.9451 O.2       7 UNK        -0.5125 
     40 CA        -75.8682   26.3095  -79.9014 C.3       6 UNK         0.0408 
     41 CB        -76.9073   25.5404  -80.7330 C.3       6 UNK        -0.1791 
     42 N         -76.3953   26.4999  -78.5493 N.am      6 UNK        -0.4762 
     43 C         -75.8570   27.2989  -77.6167 C.2       6 UNK         0.5007 
     44 O         -74.8643   28.0014  -77.8104 O.2       6 UNK        -0.5032 
     45 CA        -76.5476   27.2986  -76.2357 C.3       5 UNK         0.0783 
     46 C46       -77.6813   28.3604  -76.2169 C.3       11 UNK        -0.0857 
     47 S47       -77.0888   30.0327  -75.7828 S.3       11 UNK        -0.2512 
     48 C48       -78.2481   30.5294  -74.4639 C.3       11 UNK         0.0225 
     49 N         -77.0480   25.9811  -75.8016 N.am      5 UNK        -0.4615 
     50 C         -76.4042   24.8021  -75.8353 C.2       4 UNK         0.5053 
     51 O         -75.2885   24.6291  -76.3234 O.2       4 UNK        -0.5105 
     52 CA        -77.1506   23.5865  -75.2674 C.3       4 UNK         0.0263 
     53 CB        -76.8930   23.4415  -73.7589 C.3       4 UNK        -0.1981 
     54 N         -78.5891   23.6584  -75.5283 N.am      4 UNK        -0.4224 
     55 C         -79.1566   23.3454  -76.7025 C.2       3 UNK         0.4895 
     56 O         -78.5342   22.8960  -77.6651 O.2       3 UNK        -0.5091 
     57 CA        -80.6711   23.5806  -76.8370 C.3       3 UNK         0.0250 
     58 CB        -81.4505   22.3129  -76.4525 C.3       3 UNK        -0.1996 
     59 N         -81.1429   24.7124  -76.0351 N.am      3 UNK        -0.4254 
     60 C         -80.9161   25.9975  -76.3483 C.2       2 UNK         0.5004 
     61 O         -80.3316   26.3589  -77.3696 O.2       2 UNK        -0.5226 
     62 CA        -81.3903   27.0650  -75.3430 C.3       2 UNK         0.0269 
     63 CB        -82.8077   27.5399  -75.7001 C.3       2 UNK        -0.1926 
     64 N         -81.3636   26.6393  -73.9381 N.am      2 UNK        -0.4687 
     65 C         -80.2928   26.1623  -73.2867 C.2       1 UNK         0.5165 
     66 O         -79.1859   26.0202  -73.8091 O.2       1 UNK        -0.5079 
     67 H67       -80.6321   21.2784  -71.4328 H         1 UNK         0.0900 
     68 H68       -79.5625   21.4386  -72.8280 H         1 UNK         0.0900 
     69 H69       -79.0464   22.0343  -71.2486 H         1 UNK         0.0900 
     70 H70       -79.3126   24.2522  -70.9369 H         1 UNK         0.2959 
     71 H71       -81.5922   25.7173  -71.6606 H         1 UNK         0.1079 
     72 H72       -80.6294   26.8582  -69.9882 H         1 UNK         0.0837 
     73 H73       -79.8469   27.7540  -71.2286 H         1 UNK         0.0837 
     74 H74       -76.0729   26.7731  -70.6558 H         1 UNK         0.0685 
     75 H75       -77.0435   26.3320  -72.0353 H         1 UNK         0.0685 
     76 H76       -77.7870   28.0211  -73.4679 H         1 UNK         0.1434 
     77 H77       -77.6463   32.1550  -72.3477 H         1 UNK         0.1329 
     78 H78       -76.6179   29.1065  -69.5077 H         1 UNK         0.1335 
     79 H79       -77.7187   32.4437  -69.6668 H         1 UNK         0.0680 
     80 H80       -76.6337   31.3864  -68.7992 H         1 UNK         0.0680 
     81 H81       -73.1891   32.1547  -69.7307 H         1 UNK         0.1032 
     82 H82       -74.3325   30.8551  -69.6426 H         1 UNK         0.1032 
     83 H83       -74.5472   31.1636  -72.2777 H         1 UNK         0.0461 
     84 H84       -71.0294   31.2243  -72.1948 H         1 UNK         0.3453 
     85 H85       -70.8708   32.7546  -73.0202 H         1 UNK         0.3453 
     86 H86       -72.7842   29.5604  -70.7236 H         1 UNK         0.2984 
     87 H87       -71.3462   27.9479  -71.7568 H         1 UNK         0.0554 
     88 H88       -73.4112   27.3145  -70.5620 H         1 UNK         0.0847 
     89 H89       -72.7014   25.8826  -71.2841 H         1 UNK         0.0847 
     90 H90       -74.1061   26.6439  -72.0257 H         1 UNK         0.0847 
     91 H91       -70.7133   27.0015  -73.6200 H         1 UNK         0.3141 
     92 H92       -70.8651   26.3575  -75.9615 H         1 UNK         0.0743 
     93 H93       -71.4818   23.7318  -74.4661 H         1 UNK         0.0784 
     94 H94       -70.1598   23.9600  -75.6072 H         1 UNK         0.0784 
     95 H95       -70.1528   24.8164  -74.0826 H         1 UNK         0.0784 
     96 H96       -73.4082   25.0529  -76.4030 H         1 UNK         0.3213 
     97 H97       -72.4440   23.9882  -79.7593 H         1 UNK         0.0855 
     98 H98       -73.7578   22.6045  -77.3615 H         1 UNK         0.0814 
     99 H99       -72.3508   22.0277  -78.2435 H         1 UNK         0.0814 
    100 H100      -73.9091   22.1193  -79.0487 H         1 UNK         0.0814 
    101 H101      -74.7896   24.8017  -78.0934 H         1 UNK         0.3105 
    102 H102      -75.7332   27.2958  -80.3501 H         1 UNK         0.0547 
    103 H103      -76.5619   25.4011  -81.7584 H         1 UNK         0.0837 
    104 H104      -77.1035   24.5507  -80.3179 H         1 UNK         0.0837 
    105 H105      -77.8544   26.0779  -80.7827 H         1 UNK         0.0837 
    106 H106      -77.2094   25.9573  -78.2954 H         1 UNK         0.3020 
    107 H107      -75.7874   27.5766  -75.5019 H         1 UNK         0.1245 
    108 H108      -78.4517   28.0732  -75.5062 H         1 UNK         0.0781 
    109 H109      -78.2066   28.4114  -77.1734 H         1 UNK         0.0781 
    110 H110      -79.2372   30.1081  -74.6481 H         1 UNK         0.0836 
    111 H111      -78.3721   31.6118  -74.5211 H         1 UNK         0.0836 
    112 H112      -77.9394   25.9931  -75.3168 H         1 UNK         0.3022 
    113 H113      -76.7487   22.6974  -75.7587 H         1 UNK         0.0747 
    114 H114      -77.3053   22.5084  -73.3768 H         1 UNK         0.0793 
    115 H115      -75.8228   23.4320  -73.5464 H         1 UNK         0.0793 
    116 H116      -77.3292   24.2603  -73.1882 H         1 UNK         0.0793 
    117 H117      -79.1591   24.0885  -74.8111 H         1 UNK         0.3047 
    118 H118      -80.8778   23.7972  -77.8875 H         1 UNK         0.0822 
    119 H119      -82.5240   22.4514  -76.5819 H         1 UNK         0.0807 
    120 H120      -81.2714   22.0240  -75.4165 H         1 UNK         0.0807 
    121 H121      -81.1552   21.4703  -77.0794 H         1 UNK         0.0807 
    122 H122      -81.6044   24.4948  -75.1604 H         1 UNK         0.2946 
    123 H123      -80.7199   27.9199  -75.4380 H         1 UNK         0.1144 
    124 H124      -83.1195   28.3724  -75.0690 H         1 UNK         0.0793 
    125 H125      -83.5416   26.7404  -75.5906 H         1 UNK         0.0793 
    126 H126      -82.8548   27.8859  -76.7339 H         1 UNK         0.0793 
    127 H127      -82.2409   26.7032  -73.4414 H         1 UNK         0.2896 
@<TRIPOS>BOND
     1    1    2 1    
     2    1   67 1    
     3    1   68 1    
     4    1   69 1    
     5    2    3 2    
     6    2    4 am   BACKBONE|DICT|INTERRES
     7    4    5 1    
     8    4   70 1    
     9    5    6 1    
    10    5   65 1    
    11    5   71 1    
    12    6    7 1    
    13    6   72 1    
    14    6   73 1    
    15    7    8 1    
    16    8    9 1    
    17    8   74 1    
    18    8   75 1    
    19    9   10 ar   
    20    9   14 ar   
    21   10   11 ar   
    22   10   76 1    
    23   11   12 ar   
    24   11   48 1    
    25   12   13 ar   
    26   12   77 1    
    27   13   14 ar   
    28   13   15 1    
    29   14   78 1    
    30   15   16 1    
    31   15   79 1    
    32   15   80 1    
    33   16   17 1    
    34   17   18 1    
    35   17   81 1    
    36   17   82 1    
    37   18   19 1    
    38   18   22 1    
    39   18   83 1    
    40   19   20 am   BACKBONE|DICT|INTERRES
    41   19   21 2    
    42   20   84 1    
    43   20   85 1    
    44   22   23 am   BACKBONE|DICT|INTERRES
    45   22   86 1    
    46   23   24 2    
    47   23   25 1    
    48   25   26 1    
    49   25   27 1    
    50   25   87 1    
    51   26   88 1    
    52   26   89 1    
    53   26   90 1    
    54   27   28 am   BACKBONE|DICT|INTERRES
    55   27   91 1    
    56   28   29 2    
    57   28   30 1    
    58   30   31 1    
    59   30   32 1    
    60   30   92 1    
    61   31   93 1    
    62   31   94 1    
    63   31   95 1    
    64   32   33 am   BACKBONE|DICT|INTERRES
    65   32   96 1    
    66   33   34 2    
    67   33   35 1    
    68   35   36 1    
    69   35   37 1    
    70   35   97 1    
    71   36   98 1    
    72   36   99 1    
    73   36  100 1    
    74   37   38 am   BACKBONE|DICT|INTERRES
    75   37  101 1    
    76   38   39 2    
    77   38   40 1    
    78   40   41 1    
    79   40   42 1    
    80   40  102 1    
    81   41  103 1    
    82   41  104 1    
    83   41  105 1    
    84   42   43 am   BACKBONE|DICT|INTERRES
    85   42  106 1    
    86   43   44 2    
    87   43   45 1    
    88   45   46 1    
    89   45   49 1    
    90   45  107 1    
    91   46   47 1    
    92   46  108 1    
    93   46  109 1    
    94   47   48 1    
    95   48  110 1    
    96   48  111 1    
    97   49   50 am   BACKBONE|DICT|INTERRES
    98   49  112 1    
    99   50   51 2    
   100   50   52 1    
   101   52   53 1    
   102   52   54 1    
   103   52  113 1    
   104   53  114 1    
   105   53  115 1    
   106   53  116 1    
   107   54   55 am   BACKBONE|DICT|INTERRES
   108   54  117 1    
   109   55   56 2    
   110   55   57 1    
   111   57   58 1    
   112   57   59 1    
   113   57  118 1    
   114   58  119 1    
   115   58  120 1    
   116   58  121 1    
   117   59   60 am   BACKBONE|DICT|INTERRES
   118   59  122 1    
   119   60   61 2    
   120   60   62 1    
   121   62   63 1    
   122   62   64 1    
   123   62  123 1    
   124   63  124 1    
   125   63  125 1    
   126   63  126 1    
   127   64   65 am   BACKBONE|DICT|INTERRES
   128   64  127 1    
   129   65   66 2    
@<TRIPOS>SUBSTRUCTURE
     1 UNK         1 GROUP             0       ****    0 ROOT    
