@<TRIPOS>MOLECULE
3R135
127   129    1
SMALL
USER_CHARGES


@<TRIPOS>ATOM
      1 CA        -84.8508   30.4291  -76.2602 C.3       0 UNK        -0.1998 
      2 C         -83.6187   29.5745  -76.0019 C.2       0 UNK         0.4909 
      3 O         -82.7430   29.4869  -76.8637 O.2       0 UNK        -0.5240 
      4 N         -83.5400   28.9513  -74.8191 N.am      1 UNK        -0.4739 
      5 CA        -82.4631   28.0343  -74.4321 C.3       1 UNK         0.0864 
      6 C6        -82.3467   27.9331  -72.8893 C.3       11 UNK        -0.0881 
      7 S7        -80.6830   27.4089  -72.3551 S.3       11 UNK        -0.2682 
      8 C8        -79.8997   29.0142  -71.9856 C.3       11 UNK         0.0289 
      9 C9        -78.4129   28.8902  -71.6650 C.ar      11 UNK        -0.0687 
     10 C10       -77.9411   27.8668  -70.8354 C.ar      11 UNK        -0.0823 
     11 C11       -76.5815   27.7586  -70.5349 C.ar      11 UNK        -0.0830 
     12 C12       -75.6887   28.7026  -71.0469 C.ar      11 UNK        -0.1021 
     13 C13       -76.1454   29.7441  -71.8600 C.ar      11 UNK        -0.0753 
     14 C14       -77.5067   29.8293  -72.1709 C.ar      11 UNK        -0.0933 
     15 C15       -75.1717   30.8006  -72.3577 C.3       11 UNK         0.0166 
     16 S16       -74.7119   30.5527  -74.1013 S.3       11 UNK        -0.2615 
     17 C17       -73.2271   31.6177  -74.1962 C.3       11 UNK        -0.0865 
     18 CA        -71.9084   30.8564  -74.5155 C.3       10 UNK         0.0862 
     19 C         -70.6897   31.8099  -74.3390 C.2       10 UNK         0.5551 
     20 N         -69.8418   31.6228  -73.3355 N.am      10 UNK        -0.7319 
     21 O         -70.5207   32.7396  -75.1240 O.2       10 UNK        -0.5018 
     22 N         -71.8313   29.5583  -73.8207 N.am      10 UNK        -0.4509 
     23 C         -70.9120   28.6069  -74.0297 C.2       10 UNK         0.4899 
     24 O         -69.9092   28.7557  -74.7275 O.2       10 UNK        -0.4839 
     25 CA        -71.1936   27.2309  -73.4037 C.3       9 UNK         0.0222 
     26 CB        -71.9911   27.3003  -72.0857 C.3       9 UNK        -0.1966 
     27 N         -71.9391   26.4447  -74.3838 N.am      9 UNK        -0.4218 
     28 C         -71.3841   25.7393  -75.3801 C.2       9 UNK         0.5020 
     29 O         -70.1843   25.4685  -75.4511 O.2       9 UNK        -0.5274 
     30 CA        -72.3219   25.2902  -76.5141 C.3       8 UNK         0.0270 
     31 CB        -73.0738   24.0044  -76.1355 C.3       8 UNK        -0.1976 
     32 N         -73.2797   26.3329  -76.8924 N.am      8 UNK        -0.4313 
     33 C         -72.9696   27.5091  -77.4562 C.2       8 UNK         0.5041 
     34 O         -71.8304   27.8078  -77.8147 O.2       8 UNK        -0.5577 
     35 CA        -74.0948   28.5491  -77.6408 C.3       7 UNK         0.0284 
     36 CB        -74.6283   28.5446  -79.0872 C.3       7 UNK        -0.1958 
     37 N         -75.1850   28.4589  -76.6574 N.am      7 UNK        -0.4454 
     38 C         -76.0938   27.4882  -76.5072 C.2       7 UNK         0.5089 
     39 O         -76.1873   26.5054  -77.2441 O.2       7 UNK        -0.5125 
     40 CA        -76.9978   27.5920  -75.2712 C.3       6 UNK         0.0408 
     41 CB        -78.4458   27.9005  -75.6773 C.3       6 UNK        -0.1791 
     42 N         -76.9391   26.3575  -74.4835 N.am      6 UNK        -0.4762 
     43 C         -75.8283   25.9209  -73.8675 C.2       6 UNK         0.5007 
     44 O         -74.7540   26.5241  -73.9106 O.2       6 UNK        -0.5032 
     45 CA        -75.8858   24.5701  -73.1331 C.3       5 UNK         0.0783 
     46 C46       -76.4101   24.6850  -71.6802 C.3       11 UNK        -0.0857 
     47 S47       -75.1490   25.3705  -70.5507 S.3       11 UNK        -0.2512 
     48 C48       -76.0842   26.6365  -69.6349 C.3       11 UNK         0.0225 
     49 N         -76.6138   23.5640  -73.9103 N.am      5 UNK        -0.4615 
     50 C         -76.2608   22.2711  -73.9668 C.2       4 UNK         0.5053 
     51 O         -75.3018   21.8014  -73.3535 O.2       4 UNK        -0.5105 
     52 CA        -77.1070   21.3228  -74.8394 C.3       4 UNK         0.0263 
     53 CB        -78.0567   20.4928  -73.9601 C.3       4 UNK        -0.1981 
     54 N         -77.8913   22.0116  -75.8631 N.am      4 UNK        -0.4224 
     55 C         -77.3847   22.6543  -76.9234 C.2       3 UNK         0.4895 
     56 O         -76.1940   22.6189  -77.2326 O.2       3 UNK        -0.5091 
     57 CA        -78.3592   23.4883  -77.7792 C.3       3 UNK         0.0250 
     58 CB        -78.5153   22.8656  -79.1769 C.3       3 UNK        -0.1996 
     59 N         -79.6961   23.7019  -77.2036 N.am      3 UNK        -0.4254 
     60 C         -79.9668   24.3322  -76.0527 C.2       2 UNK         0.5004 
     61 O         -79.1075   24.7078  -75.2488 O.2       2 UNK        -0.5226 
     62 CA        -81.4438   24.5506  -75.7206 C.3       2 UNK         0.0269 
     63 CB        -81.9610   23.4562  -74.7707 C.3       2 UNK        -0.1926 
     64 N         -81.5576   25.8583  -75.0882 N.am      2 UNK        -0.4687 
     65 C         -82.6325   26.6508  -75.1031 C.2       1 UNK         0.5165 
     66 O         -83.7125   26.3225  -75.6031 O.2       1 UNK        -0.5079 
     67 H67       -85.5326   30.4294  -75.4100 H         1 UNK         0.0900 
     68 H68       -85.3917   30.0535  -77.1283 H         1 UNK         0.0900 
     69 H69       -84.5578   31.4594  -76.4601 H         1 UNK         0.0900 
     70 H70       -84.3071   29.0295  -74.1665 H         1 UNK         0.2959 
     71 H71       -81.5341   28.4633  -74.8149 H         1 UNK         0.1079 
     72 H72       -82.5598   28.8987  -72.4273 H         1 UNK         0.0837 
     73 H73       -83.0875   27.2427  -72.4809 H         1 UNK         0.0837 
     74 H74       -80.0468   29.6774  -72.8397 H         1 UNK         0.0685 
     75 H75       -80.4065   29.4747  -71.1367 H         1 UNK         0.0685 
     76 H76       -78.6358   27.1474  -70.4245 H         1 UNK         0.1434 
     77 H77       -74.6392   28.6298  -70.7989 H         1 UNK         0.1329 
     78 H78       -77.8587   30.6370  -72.7980 H         1 UNK         0.1335 
     79 H79       -75.6119   31.7920  -72.2410 H         1 UNK         0.0680 
     80 H80       -74.2727   30.7901  -71.7392 H         1 UNK         0.0680 
     81 H81       -73.1263   32.1723  -73.2611 H         1 UNK         0.1032 
     82 H82       -73.4081   32.3756  -74.9608 H         1 UNK         0.1032 
     83 H83       -71.9359   30.6083  -75.5785 H         1 UNK         0.0461 
     84 H84       -69.0551   32.2434  -73.2277 H         1 UNK         0.3453 
     85 H85       -69.9712   30.8531  -72.6989 H         1 UNK         0.3453 
     86 H86       -72.6318   29.3334  -73.2490 H         1 UNK         0.2984 
     87 H87       -70.2343   26.7542  -73.1921 H         1 UNK         0.0554 
     88 H88       -72.0759   26.3130  -71.6312 H         1 UNK         0.0847 
     89 H89       -73.0046   27.6732  -72.2317 H         1 UNK         0.0847 
     90 H90       -71.4978   27.9472  -71.3592 H         1 UNK         0.0847 
     91 H91       -72.9491   26.5764  -74.3859 H         1 UNK         0.3141 
     92 H92       -71.7039   25.0761  -77.3886 H         1 UNK         0.0743 
     93 H93       -73.7465   24.1581  -75.2928 H         1 UNK         0.0784 
     94 H94       -73.6666   23.6337  -76.9718 H         1 UNK         0.0784 
     95 H95       -72.3777   23.2121  -75.8569 H         1 UNK         0.0784 
     96 H96       -74.2599   26.1576  -76.6999 H         1 UNK         0.3213 
     97 H97       -73.6348   29.5236  -77.4675 H         1 UNK         0.0855 
     98 H98       -73.8238   28.7442  -79.7962 H         1 UNK         0.0814 
     99 H99       -75.3870   29.3133  -79.2332 H         1 UNK         0.0814 
    100 H100      -75.0651   27.5838  -79.3606 H         1 UNK         0.0814 
    101 H101      -75.1665   29.1796  -75.9447 H         1 UNK         0.3105 
    102 H102      -76.6488   28.4034  -74.6314 H         1 UNK         0.0547 
    103 H103      -78.5087   28.8636  -76.1849 H         1 UNK         0.0837 
    104 H104      -78.8453   27.1494  -76.3588 H         1 UNK         0.0837 
    105 H105      -79.0947   27.9519  -74.8055 H         1 UNK         0.0837 
    106 H106      -77.7739   25.7789  -74.5052 H         1 UNK         0.3020 
    107 H107      -74.8443   24.2434  -73.0760 H         1 UNK         0.1245 
    108 H108      -76.6644   23.6960  -71.2961 H         1 UNK         0.0781 
    109 H109      -77.3354   25.2607  -71.6427 H         1 UNK         0.0781 
    110 H110      -75.4407   27.0569  -68.8608 H         1 UNK         0.0836 
    111 H111      -76.9141   26.1584  -69.1120 H         1 UNK         0.0836 
    112 H112      -77.4102   23.8847  -74.4510 H         1 UNK         0.3022 
    113 H113      -76.4186   20.6408  -75.3432 H         1 UNK         0.0747 
    114 H114      -78.6103   19.7630  -74.5513 H         1 UNK         0.0793 
    115 H115      -77.5019   19.9382  -73.2018 H         1 UNK         0.0793 
    116 H116      -78.7790   21.1229  -73.4392 H         1 UNK         0.0793 
    117 H117      -78.8818   22.1000  -75.6920 H         1 UNK         0.3047 
    118 H118      -77.8998   24.4723  -77.8950 H         1 UNK         0.0822 
    119 H119      -79.1091   23.5027  -79.8327 H         1 UNK         0.0807 
    120 H120      -78.9950   21.8871  -79.1309 H         1 UNK         0.0807 
    121 H121      -77.5448   22.7303  -79.6569 H         1 UNK         0.0807 
    122 H122      -80.4711   23.3991  -77.7767 H         1 UNK         0.2946 
    123 H123      -82.0259   24.5429  -76.6452 H         1 UNK         0.1144 
    124 H124      -81.8730   22.4684  -75.2245 H         1 UNK         0.0793 
    125 H125      -83.0128   23.6073  -74.5273 H         1 UNK         0.0793 
    126 H126      -81.4012   23.4392  -73.8344 H         1 UNK         0.0793 
    127 H127      -80.7094   26.1742  -74.6330 H         1 UNK         0.2896 
@<TRIPOS>BOND
     1    1    2 1    
     2    1   67 1    
     3    1   68 1    
     4    1   69 1    
     5    2    3 2    
     6    2    4 am   BACKBONE|DICT|INTERRES
     7    4    5 1    
     8    4   70 1    
     9    5    6 1    
    10    5   65 1    
    11    5   71 1    
    12    6    7 1    
    13    6   72 1    
    14    6   73 1    
    15    7    8 1    
    16    8    9 1    
    17    8   74 1    
    18    8   75 1    
    19    9   10 ar   
    20    9   14 ar   
    21   10   11 ar   
    22   10   76 1    
    23   11   12 ar   
    24   11   48 1    
    25   12   13 ar   
    26   12   77 1    
    27   13   14 ar   
    28   13   15 1    
    29   14   78 1    
    30   15   16 1    
    31   15   79 1    
    32   15   80 1    
    33   16   17 1    
    34   17   18 1    
    35   17   81 1    
    36   17   82 1    
    37   18   19 1    
    38   18   22 1    
    39   18   83 1    
    40   19   20 am   BACKBONE|DICT|INTERRES
    41   19   21 2    
    42   20   84 1    
    43   20   85 1    
    44   22   23 am   BACKBONE|DICT|INTERRES
    45   22   86 1    
    46   23   24 2    
    47   23   25 1    
    48   25   26 1    
    49   25   27 1    
    50   25   87 1    
    51   26   88 1    
    52   26   89 1    
    53   26   90 1    
    54   27   28 am   BACKBONE|DICT|INTERRES
    55   27   91 1    
    56   28   29 2    
    57   28   30 1    
    58   30   31 1    
    59   30   32 1    
    60   30   92 1    
    61   31   93 1    
    62   31   94 1    
    63   31   95 1    
    64   32   33 am   BACKBONE|DICT|INTERRES
    65   32   96 1    
    66   33   34 2    
    67   33   35 1    
    68   35   36 1    
    69   35   37 1    
    70   35   97 1    
    71   36   98 1    
    72   36   99 1    
    73   36  100 1    
    74   37   38 am   BACKBONE|DICT|INTERRES
    75   37  101 1    
    76   38   39 2    
    77   38   40 1    
    78   40   41 1    
    79   40   42 1    
    80   40  102 1    
    81   41  103 1    
    82   41  104 1    
    83   41  105 1    
    84   42   43 am   BACKBONE|DICT|INTERRES
    85   42  106 1    
    86   43   44 2    
    87   43   45 1    
    88   45   46 1    
    89   45   49 1    
    90   45  107 1    
    91   46   47 1    
    92   46  108 1    
    93   46  109 1    
    94   47   48 1    
    95   48  110 1    
    96   48  111 1    
    97   49   50 am   BACKBONE|DICT|INTERRES
    98   49  112 1    
    99   50   51 2    
   100   50   52 1    
   101   52   53 1    
   102   52   54 1    
   103   52  113 1    
   104   53  114 1    
   105   53  115 1    
   106   53  116 1    
   107   54   55 am   BACKBONE|DICT|INTERRES
   108   54  117 1    
   109   55   56 2    
   110   55   57 1    
   111   57   58 1    
   112   57   59 1    
   113   57  118 1    
   114   58  119 1    
   115   58  120 1    
   116   58  121 1    
   117   59   60 am   BACKBONE|DICT|INTERRES
   118   59  122 1    
   119   60   61 2    
   120   60   62 1    
   121   62   63 1    
   122   62   64 1    
   123   62  123 1    
   124   63  124 1    
   125   63  125 1    
   126   63  126 1    
   127   64   65 am   BACKBONE|DICT|INTERRES
   128   64  127 1    
   129   65   66 2    
@<TRIPOS>SUBSTRUCTURE
     1 UNK         1 GROUP             0       ****    0 ROOT    
