@<TRIPOS>MOLECULE
3R135
127   129    1
SMALL
USER_CHARGES


@<TRIPOS>ATOM
      1 CA        -80.2395   27.4852  -69.7987 C.3       0 UNK        -0.1998 
      2 C         -81.2428   27.6696  -70.9268 C.2       0 UNK         0.4909 
      3 O         -82.4240   27.3677  -70.7549 O.2       0 UNK        -0.5240 
      4 N         -80.7786   28.1703  -72.0784 N.am      1 UNK        -0.4739 
      5 CA        -81.5880   28.4464  -73.2741 C.3       1 UNK         0.0864 
      6 C6        -80.8356   29.3307  -74.3015 C.3       11 UNK        -0.0881 
      7 S7        -80.2291   30.9074  -73.6025 S.3       11 UNK        -0.2682 
      8 C8        -78.4327   30.7942  -73.8897 C.3       11 UNK         0.0289 
      9 C9        -77.7168   30.0545  -72.7683 C.ar      11 UNK        -0.0687 
     10 C10       -77.7029   28.6581  -72.7377 C.ar      11 UNK        -0.0823 
     11 C11       -77.0390   27.9634  -71.7159 C.ar      11 UNK        -0.0830 
     12 C12       -76.3686   28.6977  -70.7335 C.ar      11 UNK        -0.1021 
     13 C13       -76.3613   30.0949  -70.7584 C.ar      11 UNK        -0.0753 
     14 C14       -77.0460   30.7686  -71.7726 C.ar      11 UNK        -0.0933 
     15 C15       -75.6226   30.8694  -69.6779 C.3       11 UNK         0.0166 
     16 S16       -73.8202   30.8485  -69.9369 S.3       11 UNK        -0.2615 
     17 C17       -73.6046   32.0690  -71.2835 C.3       11 UNK        -0.0865 
     18 CA        -72.6905   31.5919  -72.4476 C.3       10 UNK         0.0862 
     19 C         -71.2219   31.3252  -72.0205 C.2       10 UNK         0.5551 
     20 N         -70.5064   32.3530  -71.5839 N.am      10 UNK        -0.7319 
     21 O         -70.7232   30.2016  -72.0801 O.2       10 UNK        -0.5018 
     22 N         -73.2453   30.4446  -73.1716 N.am      10 UNK        -0.4509 
     23 C         -74.1532   30.5069  -74.1500 C.2       10 UNK         0.4899 
     24 O         -74.7032   31.5508  -74.5059 O.2       10 UNK        -0.4839 
     25 CA        -74.4905   29.1749  -74.8525 C.3       9 UNK         0.0222 
     26 CB        -75.2497   29.3658  -76.1822 C.3       9 UNK        -0.1966 
     27 N         -73.3318   28.2908  -75.0500 N.am      9 UNK        -0.4218 
     28 C         -72.1873   28.5696  -75.6937 C.2       9 UNK         0.5020 
     29 O         -71.9354   29.6503  -76.2280 O.2       9 UNK        -0.5274 
     30 CA        -71.1433   27.4470  -75.7508 C.3       8 UNK         0.0270 
     31 CB        -70.6438   27.0578  -74.3464 C.3       8 UNK        -0.1976 
     32 N         -71.6580   26.2686  -76.4534 N.am      8 UNK        -0.4313 
     33 C         -70.9129   25.4642  -77.2270 C.2       8 UNK         0.5041 
     34 O         -69.7081   25.6364  -77.4216 O.2       8 UNK        -0.5577 
     35 CA        -71.5949   24.2513  -77.8964 C.3       7 UNK         0.0284 
     36 CB        -71.2599   22.9608  -77.1304 C.3       7 UNK        -0.1958 
     37 N         -73.0492   24.3687  -78.0105 N.am      7 UNK        -0.4454 
     38 C         -73.6927   25.2451  -78.7914 C.2       7 UNK         0.5089 
     39 O         -73.1249   25.9749  -79.6046 O.2       7 UNK        -0.5125 
     40 CA        -75.2232   25.3546  -78.6294 C.3       6 UNK         0.0408 
     41 CB        -75.9319   24.6903  -79.8205 C.3       6 UNK        -0.1791 
     42 N         -75.8021   24.8285  -77.3826 N.am      6 UNK        -0.4762 
     43 C         -75.4295   25.1232  -76.1258 C.2       6 UNK         0.5007 
     44 O         -74.4208   25.7707  -75.8465 O.2       6 UNK        -0.5032 
     45 CA        -76.3319   24.6494  -74.9705 C.3       5 UNK         0.0783 
     46 C46       -77.0504   25.8788  -74.3742 C.3       11 UNK        -0.0857 
     47 S47       -77.9883   25.5166  -72.8531 S.3       11 UNK        -0.2512 
     48 C48       -77.0023   26.4335  -71.6174 C.3       11 UNK         0.0225 
     49 N         -77.2725   23.5968  -75.3663 N.am      5 UNK        -0.4615 
     50 C         -76.9232   22.3270  -75.6197 C.2       4 UNK         0.5053 
     51 O         -75.7641   21.9187  -75.5435 O.2       4 UNK        -0.5105 
     52 CA        -78.0333   21.3387  -76.0267 C.3       4 UNK         0.0263 
     53 CB        -78.3638   20.3983  -74.8560 C.3       4 UNK        -0.1981 
     54 N         -79.2694   21.9800  -76.4801 N.am      4 UNK        -0.4224 
     55 C         -79.4083   22.6953  -77.6058 C.2       3 UNK         0.4895 
     56 O         -78.5063   22.8618  -78.4268 O.2       3 UNK        -0.5091 
     57 CA        -80.7740   23.3749  -77.8262 C.3       3 UNK         0.0250 
     58 CB        -81.6863   22.4842  -78.6845 C.3       3 UNK        -0.1996 
     59 N         -81.4634   23.7215  -76.5746 N.am      3 UNK        -0.4254 
     60 C         -80.9932   24.5986  -75.6766 C.2       2 UNK         0.5004 
     61 O         -79.9398   25.2202  -75.8266 O.2       2 UNK        -0.5226 
     62 CA        -81.7868   24.7423  -74.3696 C.3       2 UNK         0.0269 
     63 CB        -81.4264   23.6016  -73.4023 C.3       2 UNK        -0.1926 
     64 N         -81.4816   26.0178  -73.7206 N.am      2 UNK        -0.4687 
     65 C         -82.1176   27.1705  -73.9689 C.2       1 UNK         0.5165 
     66 O         -83.0889   27.2580  -74.7225 O.2       1 UNK        -0.5079 
     67 H67       -79.9363   26.4406  -69.7330 H         1 UNK         0.0900 
     68 H68       -79.3484   28.0942  -69.9487 H         1 UNK         0.0900 
     69 H69       -80.6836   27.7734  -68.8463 H         1 UNK         0.0900 
     70 H70       -79.8062   28.4388  -72.1405 H         1 UNK         0.2959 
     71 H71       -82.4688   29.0007  -72.9418 H         1 UNK         0.1079 
     72 H72       -81.5012   29.5867  -75.1285 H         1 UNK         0.0837 
     73 H73       -80.0118   28.7776  -74.7546 H         1 UNK         0.0837 
     74 H74       -78.2355   30.3128  -74.8481 H         1 UNK         0.0685 
     75 H75       -78.0332   31.8056  -73.9793 H         1 UNK         0.0685 
     76 H76       -78.2163   28.1254  -73.5216 H         1 UNK         0.1434 
     77 H77       -75.8418   28.1802  -69.9428 H         1 UNK         0.1329 
     78 H78       -77.0487   31.8496  -71.7942 H         1 UNK         0.1335 
     79 H79       -75.8410   30.4238  -68.7063 H         1 UNK         0.0680 
     80 H80       -75.9743   31.9009  -69.6240 H         1 UNK         0.0680 
     81 H81       -74.5795   32.3430  -71.6872 H         1 UNK         0.1032 
     82 H82       -73.2102   32.9874  -70.8462 H         1 UNK         0.1032 
     83 H83       -72.6237   32.4119  -73.1657 H         1 UNK         0.0461 
     84 H84       -69.5516   32.1972  -71.3006 H         1 UNK         0.3453 
     85 H85       -70.8968   33.2810  -71.5352 H         1 UNK         0.3453 
     86 H86       -72.8031   29.5617  -72.9553 H         1 UNK         0.2984 
     87 H87       -75.1558   28.6505  -74.1677 H         1 UNK         0.0554 
     88 H88       -76.1671   29.9353  -76.0346 H         1 UNK         0.0847 
     89 H89       -75.5312   28.4072  -76.6181 H         1 UNK         0.0847 
     90 H90       -74.6475   29.9040  -76.9147 H         1 UNK         0.0847 
     91 H91       -73.4572   27.3449  -74.7116 H         1 UNK         0.3141 
     92 H92       -70.2933   27.8505  -76.3061 H         1 UNK         0.0743 
     93 H93       -71.4218   26.5749  -73.7544 H         1 UNK         0.0784 
     94 H94       -69.7993   26.3710  -74.4068 H         1 UNK         0.0784 
     95 H95       -70.3063   27.9357  -73.7935 H         1 UNK         0.0784 
     96 H96       -72.6539   26.0758  -76.3568 H         1 UNK         0.3213 
     97 H97       -71.1854   24.1667  -78.9054 H         1 UNK         0.0855 
     98 H98       -71.6589   22.9790  -76.1154 H         1 UNK         0.0814 
     99 H99       -70.1805   22.8213  -77.0535 H         1 UNK         0.0814 
    100 H100      -71.6624   22.0823  -77.6353 H         1 UNK         0.0814 
    101 H101      -73.6043   23.8225  -77.3673 H         1 UNK         0.3105 
    102 H102      -75.4575   26.4206  -78.6517 H         1 UNK         0.0547 
    103 H103      -75.5490   25.0682  -80.7696 H         1 UNK         0.0837 
    104 H104      -75.7920   23.6086  -79.8186 H         1 UNK         0.0837 
    105 H105      -77.0039   24.8881  -79.8063 H         1 UNK         0.0837 
    106 H106      -76.6375   24.2682  -77.4933 H         1 UNK         0.3020 
    107 H107      -75.6681   24.2389  -74.2060 H         1 UNK         0.1245 
    108 H108      -76.3213   26.6573  -74.1488 H         1 UNK         0.0781 
    109 H109      -77.7317   26.3185  -75.1041 H         1 UNK         0.0781 
    110 H110      -75.9660   26.0980  -71.6792 H         1 UNK         0.0836 
    111 H111      -77.3585   26.1418  -70.6284 H         1 UNK         0.0836 
    112 H112      -78.2403   23.8824  -75.4567 H         1 UNK         0.3022 
    113 H113      -77.6447   20.7382  -76.8520 H         1 UNK         0.0747 
    114 H114      -79.0895   19.6389  -75.1480 H         1 UNK         0.0793 
    115 H115      -77.4712   19.8735  -74.5119 H         1 UNK         0.0793 
    116 H116      -78.7701   20.9432  -74.0027 H         1 UNK         0.0793 
    117 H117      -80.0699   21.8976  -75.8713 H         1 UNK         0.3047 
    118 H118      -80.5890   24.3027  -78.3721 H         1 UNK         0.0822 
    119 H119      -81.9275   21.5467  -78.1817 H         1 UNK         0.0807 
    120 H120      -81.2057   22.2318  -79.6310 H         1 UNK         0.0807 
    121 H121      -82.6226   22.9885  -78.9242 H         1 UNK         0.0807 
    122 H122      -82.3323   23.2413  -76.3864 H         1 UNK         0.2946 
    123 H123      -82.8545   24.6923  -74.5961 H         1 UNK         0.1144 
    124 H124      -81.9575   23.7042  -72.4556 H         1 UNK         0.0793 
    125 H125      -80.3580   23.5766  -73.1837 H         1 UNK         0.0793 
    126 H126      -81.6971   22.6305  -73.8182 H         1 UNK         0.0793 
    127 H127      -80.6556   26.0426  -73.1394 H         1 UNK         0.2896 
@<TRIPOS>BOND
     1    1    2 1    
     2    1   67 1    
     3    1   68 1    
     4    1   69 1    
     5    2    3 2    
     6    2    4 am   BACKBONE|DICT|INTERRES
     7    4    5 1    
     8    4   70 1    
     9    5    6 1    
    10    5   65 1    
    11    5   71 1    
    12    6    7 1    
    13    6   72 1    
    14    6   73 1    
    15    7    8 1    
    16    8    9 1    
    17    8   74 1    
    18    8   75 1    
    19    9   10 ar   
    20    9   14 ar   
    21   10   11 ar   
    22   10   76 1    
    23   11   12 ar   
    24   11   48 1    
    25   12   13 ar   
    26   12   77 1    
    27   13   14 ar   
    28   13   15 1    
    29   14   78 1    
    30   15   16 1    
    31   15   79 1    
    32   15   80 1    
    33   16   17 1    
    34   17   18 1    
    35   17   81 1    
    36   17   82 1    
    37   18   19 1    
    38   18   22 1    
    39   18   83 1    
    40   19   20 am   BACKBONE|DICT|INTERRES
    41   19   21 2    
    42   20   84 1    
    43   20   85 1    
    44   22   23 am   BACKBONE|DICT|INTERRES
    45   22   86 1    
    46   23   24 2    
    47   23   25 1    
    48   25   26 1    
    49   25   27 1    
    50   25   87 1    
    51   26   88 1    
    52   26   89 1    
    53   26   90 1    
    54   27   28 am   BACKBONE|DICT|INTERRES
    55   27   91 1    
    56   28   29 2    
    57   28   30 1    
    58   30   31 1    
    59   30   32 1    
    60   30   92 1    
    61   31   93 1    
    62   31   94 1    
    63   31   95 1    
    64   32   33 am   BACKBONE|DICT|INTERRES
    65   32   96 1    
    66   33   34 2    
    67   33   35 1    
    68   35   36 1    
    69   35   37 1    
    70   35   97 1    
    71   36   98 1    
    72   36   99 1    
    73   36  100 1    
    74   37   38 am   BACKBONE|DICT|INTERRES
    75   37  101 1    
    76   38   39 2    
    77   38   40 1    
    78   40   41 1    
    79   40   42 1    
    80   40  102 1    
    81   41  103 1    
    82   41  104 1    
    83   41  105 1    
    84   42   43 am   BACKBONE|DICT|INTERRES
    85   42  106 1    
    86   43   44 2    
    87   43   45 1    
    88   45   46 1    
    89   45   49 1    
    90   45  107 1    
    91   46   47 1    
    92   46  108 1    
    93   46  109 1    
    94   47   48 1    
    95   48  110 1    
    96   48  111 1    
    97   49   50 am   BACKBONE|DICT|INTERRES
    98   49  112 1    
    99   50   51 2    
   100   50   52 1    
   101   52   53 1    
   102   52   54 1    
   103   52  113 1    
   104   53  114 1    
   105   53  115 1    
   106   53  116 1    
   107   54   55 am   BACKBONE|DICT|INTERRES
   108   54  117 1    
   109   55   56 2    
   110   55   57 1    
   111   57   58 1    
   112   57   59 1    
   113   57  118 1    
   114   58  119 1    
   115   58  120 1    
   116   58  121 1    
   117   59   60 am   BACKBONE|DICT|INTERRES
   118   59  122 1    
   119   60   61 2    
   120   60   62 1    
   121   62   63 1    
   122   62   64 1    
   123   62  123 1    
   124   63  124 1    
   125   63  125 1    
   126   63  126 1    
   127   64   65 am   BACKBONE|DICT|INTERRES
   128   64  127 1    
   129   65   66 2    
@<TRIPOS>SUBSTRUCTURE
     1 UNK         1 GROUP             0       ****    0 ROOT    
