@<TRIPOS>MOLECULE
3R135
127   129    1
SMALL
USER_CHARGES


@<TRIPOS>ATOM
      1 CA        -84.7487   30.5458  -74.2201 C.3       0 UNK        -0.1998 
      2 C         -83.4918   29.7454  -74.5280 C.2       0 UNK         0.4909 
      3 O         -83.1794   29.5221  -75.6985 O.2       0 UNK        -0.5240 
      4 N         -82.7644   29.3212  -73.4874 N.am      1 UNK        -0.4739 
      5 CA        -81.5513   28.5012  -73.5912 C.3       1 UNK         0.0864 
      6 C6        -80.7393   28.5020  -72.2710 C.3       11 UNK        -0.0881 
      7 S7        -80.2623   30.1817  -71.7303 S.3       11 UNK        -0.2682 
      8 C8        -79.6644   29.8750  -70.0350 C.3       11 UNK         0.0289 
      9 C9        -78.2884   29.2263  -70.0406 C.ar      11 UNK        -0.0687 
     10 C10       -78.1708   27.8388  -70.1283 C.ar      11 UNK        -0.0823 
     11 C11       -76.9143   27.2350  -70.2277 C.ar      11 UNK        -0.0830 
     12 C12       -75.7634   28.0286  -70.1778 C.ar      11 UNK        -0.1021 
     13 C13       -75.8651   29.4164  -70.0395 C.ar      11 UNK        -0.0753 
     14 C14       -77.1321   30.0090  -69.9775 C.ar      11 UNK        -0.0933 
     15 C15       -74.6110   30.2725  -69.9167 C.3       11 UNK         0.0166 
     16 S16       -74.5378   31.5827  -71.1792 S.3       11 UNK        -0.2615 
     17 C17       -73.4433   30.8858  -72.4687 C.3       11 UNK        -0.0865 
     18 CA        -74.1554   30.1928  -73.6745 C.3       10 UNK         0.0862 
     19 C         -75.0121   31.1228  -74.5960 C.2       10 UNK         0.5551 
     20 N         -75.5352   32.2323  -74.0960 N.am      10 UNK        -0.7319 
     21 O         -75.2482   30.8220  -75.7653 O.2       10 UNK        -0.5018 
     22 N         -73.2196   29.3736  -74.4675 N.am      10 UNK        -0.4509 
     23 C         -72.1635   29.8434  -75.1508 C.2       10 UNK         0.4899 
     24 O         -71.7461   30.9982  -75.0477 O.2       10 UNK        -0.4839 
     25 CA        -71.4833   28.9013  -76.1631 C.3       9 UNK         0.0222 
     26 CB        -69.9975   29.2465  -76.4072 C.3       9 UNK        -0.1966 
     27 N         -71.6636   27.4723  -75.8909 N.am      9 UNK        -0.4218 
     28 C         -71.1334   26.7446  -74.8959 C.2       9 UNK         0.5020 
     29 O         -70.4164   27.2185  -74.0133 O.2       9 UNK        -0.5274 
     30 CA        -71.4384   25.2294  -74.8678 C.3       8 UNK         0.0270 
     31 CB        -72.0528   24.8169  -73.5186 C.3       8 UNK        -0.1976 
     32 N         -72.3166   24.7760  -75.9528 N.am      8 UNK        -0.4313 
     33 C         -71.9449   24.5833  -77.2262 C.2       8 UNK         0.5041 
     34 O         -70.7817   24.6737  -77.6193 O.2       8 UNK        -0.5577 
     35 CA        -73.0669   24.3030  -78.2447 C.3       7 UNK         0.0284 
     36 CB        -73.3668   22.7984  -78.3315 C.3       7 UNK        -0.1958 
     37 N         -74.3018   25.0437  -77.9564 N.am      7 UNK        -0.4454 
     38 C         -74.4043   26.3819  -77.9707 C.2       7 UNK         0.5089 
     39 O         -73.4835   27.1307  -78.2947 O.2       7 UNK        -0.5125 
     40 CA        -75.7250   26.9934  -77.4721 C.3       6 UNK         0.0408 
     41 CB        -76.7937   26.9777  -78.5754 C.3       6 UNK        -0.1791 
     42 N         -76.2322   26.3188  -76.2759 N.am      6 UNK        -0.4762 
     43 C         -75.6043   26.2940  -75.0912 C.2       6 UNK         0.5007 
     44 O         -74.5675   26.9121  -74.8557 O.2       6 UNK        -0.5032 
     45 CA        -76.1959   25.3832  -74.0021 C.3       5 UNK         0.0783 
     46 C46       -77.2871   26.1151  -73.1955 C.3       11 UNK        -0.0857 
     47 S47       -77.8634   25.1167  -71.7797 S.3       11 UNK        -0.2512 
     48 C48       -76.8017   25.7286  -70.4256 C.3       11 UNK         0.0225 
     49 N         -76.6712   24.1195  -74.5669 N.am      5 UNK        -0.4615 
     50 C         -75.8724   23.1529  -75.0331 C.2       4 UNK         0.5053 
     51 O         -74.6442   23.2151  -75.0118 O.2       4 UNK        -0.5105 
     52 CA        -76.5632   21.9311  -75.6608 C.3       4 UNK         0.0263 
     53 CB        -76.9305   20.9050  -74.5774 C.3       4 UNK        -0.1981 
     54 N         -77.7626   22.2943  -76.4211 N.am      4 UNK        -0.4224 
     55 C         -77.7499   23.0235  -77.5465 C.2       3 UNK         0.4895 
     56 O         -76.7206   23.4183  -78.0939 O.2       3 UNK        -0.5091 
     57 CA        -79.1175   23.4232  -78.1279 C.3       3 UNK         0.0250 
     58 CB        -79.6812   22.2977  -79.0097 C.3       3 UNK        -0.1996 
     59 N         -80.1024   23.7913  -77.1020 N.am      3 UNK        -0.4254 
     60 C         -79.9632   24.8235  -76.2589 C.2       2 UNK         0.5004 
     61 O         -78.9806   25.5695  -76.2479 O.2       2 UNK        -0.5226 
     62 CA        -81.0748   25.0338  -75.2253 C.3       2 UNK         0.0269 
     63 CB        -80.9560   24.0017  -74.0861 C.3       2 UNK        -0.1926 
     64 N         -80.9574   26.3933  -74.6993 N.am      2 UNK        -0.4687 
     65 C         -81.8964   27.0559  -74.0160 C.2       1 UNK         0.5165 
     66 O         -82.9833   26.5628  -73.7005 O.2       1 UNK        -0.5079 
     67 H67       -84.8936   30.6807  -73.1484 H         1 UNK         0.0900 
     68 H68       -84.6883   31.5315  -74.6806 H         1 UNK         0.0900 
     69 H69       -85.6250   30.0356  -74.6191 H         1 UNK         0.0900 
     70 H70       -83.0703   29.5266  -72.5473 H         1 UNK         0.2959 
     71 H71       -80.9263   28.9370  -74.3743 H         1 UNK         0.1079 
     72 H72       -79.8262   27.9175  -72.3967 H         1 UNK         0.0837 
     73 H73       -81.3078   28.0222  -71.4717 H         1 UNK         0.0837 
     74 H74       -79.6239   30.8253  -69.5005 H         1 UNK         0.0685 
     75 H75       -80.3795   29.2527  -69.4949 H         1 UNK         0.0685 
     76 H76       -79.0621   27.2279  -70.1668 H         1 UNK         0.1434 
     77 H77       -74.7877   27.5663  -70.2419 H         1 UNK         0.1329 
     78 H78       -77.2166   31.0836  -69.8894 H         1 UNK         0.1335 
     79 H79       -73.7077   29.6621  -69.9516 H         1 UNK         0.0680 
     80 H80       -74.6167   30.7451  -68.9336 H         1 UNK         0.0680 
     81 H81       -72.8133   31.7014  -72.8258 H         1 UNK         0.1032 
     82 H82       -72.7573   30.1812  -71.9968 H         1 UNK         0.1032 
     83 H83       -74.8657   29.4766  -73.2596 H         1 UNK         0.0461 
     84 H84       -75.3781   32.4665  -73.1258 H         1 UNK         0.3453 
     85 H85       -76.1016   32.8258  -74.6807 H         1 UNK         0.3453 
     86 H86       -73.5356   28.4237  -74.6532 H         1 UNK         0.2984 
     87 H87       -72.0043   29.0780  -77.1047 H         1 UNK         0.0554 
     88 H88       -69.8891   30.2605  -76.7938 H         1 UNK         0.0847 
     89 H89       -69.5484   28.5747  -77.1386 H         1 UNK         0.0847 
     90 H90       -69.4108   29.1872  -75.4902 H         1 UNK         0.0847 
     91 H91       -72.2678   26.9961  -76.5506 H         1 UNK         0.3141 
     92 H92       -70.4817   24.7132  -74.9700 H         1 UNK         0.0743 
     93 H93       -72.9812   25.3506  -73.3189 H         1 UNK         0.0784 
     94 H94       -72.2652   23.7480  -73.4869 H         1 UNK         0.0784 
     95 H95       -71.3714   25.0348  -72.6953 H         1 UNK         0.0784 
     96 H96       -73.2839   24.5948  -75.7042 H         1 UNK         0.3213 
     97 H97       -72.7097   24.6324  -79.2228 H         1 UNK         0.0855 
     98 H98       -73.7263   22.4004  -77.3831 H         1 UNK         0.0814 
     99 H99       -72.4702   22.2382  -78.6000 H         1 UNK         0.0814 
    100 H100      -74.1208   22.5870  -79.0900 H         1 UNK         0.0814 
    101 H101      -75.1319   24.4945  -77.7481 H         1 UNK         0.3105 
    102 H102      -75.5306   28.0346  -77.2049 H         1 UNK         0.0547 
    103 H103      -76.4531   27.5268  -79.4540 H         1 UNK         0.0837 
    104 H104      -77.0312   25.9641  -78.8972 H         1 UNK         0.0837 
    105 H105      -77.7185   27.4457  -78.2377 H         1 UNK         0.0837 
    106 H106      -77.1267   25.8408  -76.3618 H         1 UNK         0.3020 
    107 H107      -75.3798   25.1495  -73.3150 H         1 UNK         0.1245 
    108 H108      -78.1491   26.3343  -73.8257 H         1 UNK         0.0781 
    109 H109      -76.9242   27.0836  -72.8485 H         1 UNK         0.0781 
    110 H110      -75.7703   25.4395  -70.6329 H         1 UNK         0.0836 
    111 H111      -77.0839   25.2269  -69.4991 H         1 UNK         0.0836 
    112 H112      -77.6705   24.0101  -74.6417 H         1 UNK         0.3022 
    113 H113      -75.8545   21.4651  -76.3487 H         1 UNK         0.0747 
    114 H114      -77.3551   20.0010  -75.0145 H         1 UNK         0.0793 
    115 H115      -76.0475   20.6050  -74.0111 H         1 UNK         0.0793 
    116 H116      -77.6529   21.3065  -73.8654 H         1 UNK         0.0793 
    117 H117      -78.6529   22.0034  -76.0449 H         1 UNK         0.3047 
    118 H118      -78.9577   24.2999  -78.7591 H         1 UNK         0.0822 
    119 H119      -80.6004   22.6066  -79.5079 H         1 UNK         0.0807 
    120 H120      -79.8976   21.3979  -78.4323 H         1 UNK         0.0807 
    121 H121      -78.9703   22.0211  -79.7898 H         1 UNK         0.0807 
    122 H122      -80.9349   23.2215  -77.0470 H         1 UNK         0.2946 
    123 H123      -82.0404   24.9289  -75.7253 H         1 UNK         0.1144 
    124 H124      -81.7433   24.1304  -73.3435 H         1 UNK         0.0793 
    125 H125      -79.9992   24.0798  -73.5706 H         1 UNK         0.0793 
    126 H126      -81.0411   22.9824  -74.4644 H         1 UNK         0.0793 
    127 H127      -80.0951   26.8532  -74.9664 H         1 UNK         0.2896 
@<TRIPOS>BOND
     1    1    2 1    
     2    1   67 1    
     3    1   68 1    
     4    1   69 1    
     5    2    3 2    
     6    2    4 am   BACKBONE|DICT|INTERRES
     7    4    5 1    
     8    4   70 1    
     9    5    6 1    
    10    5   65 1    
    11    5   71 1    
    12    6    7 1    
    13    6   72 1    
    14    6   73 1    
    15    7    8 1    
    16    8    9 1    
    17    8   74 1    
    18    8   75 1    
    19    9   10 ar   
    20    9   14 ar   
    21   10   11 ar   
    22   10   76 1    
    23   11   12 ar   
    24   11   48 1    
    25   12   13 ar   
    26   12   77 1    
    27   13   14 ar   
    28   13   15 1    
    29   14   78 1    
    30   15   16 1    
    31   15   79 1    
    32   15   80 1    
    33   16   17 1    
    34   17   18 1    
    35   17   81 1    
    36   17   82 1    
    37   18   19 1    
    38   18   22 1    
    39   18   83 1    
    40   19   20 am   BACKBONE|DICT|INTERRES
    41   19   21 2    
    42   20   84 1    
    43   20   85 1    
    44   22   23 am   BACKBONE|DICT|INTERRES
    45   22   86 1    
    46   23   24 2    
    47   23   25 1    
    48   25   26 1    
    49   25   27 1    
    50   25   87 1    
    51   26   88 1    
    52   26   89 1    
    53   26   90 1    
    54   27   28 am   BACKBONE|DICT|INTERRES
    55   27   91 1    
    56   28   29 2    
    57   28   30 1    
    58   30   31 1    
    59   30   32 1    
    60   30   92 1    
    61   31   93 1    
    62   31   94 1    
    63   31   95 1    
    64   32   33 am   BACKBONE|DICT|INTERRES
    65   32   96 1    
    66   33   34 2    
    67   33   35 1    
    68   35   36 1    
    69   35   37 1    
    70   35   97 1    
    71   36   98 1    
    72   36   99 1    
    73   36  100 1    
    74   37   38 am   BACKBONE|DICT|INTERRES
    75   37  101 1    
    76   38   39 2    
    77   38   40 1    
    78   40   41 1    
    79   40   42 1    
    80   40  102 1    
    81   41  103 1    
    82   41  104 1    
    83   41  105 1    
    84   42   43 am   BACKBONE|DICT|INTERRES
    85   42  106 1    
    86   43   44 2    
    87   43   45 1    
    88   45   46 1    
    89   45   49 1    
    90   45  107 1    
    91   46   47 1    
    92   46  108 1    
    93   46  109 1    
    94   47   48 1    
    95   48  110 1    
    96   48  111 1    
    97   49   50 am   BACKBONE|DICT|INTERRES
    98   49  112 1    
    99   50   51 2    
   100   50   52 1    
   101   52   53 1    
   102   52   54 1    
   103   52  113 1    
   104   53  114 1    
   105   53  115 1    
   106   53  116 1    
   107   54   55 am   BACKBONE|DICT|INTERRES
   108   54  117 1    
   109   55   56 2    
   110   55   57 1    
   111   57   58 1    
   112   57   59 1    
   113   57  118 1    
   114   58  119 1    
   115   58  120 1    
   116   58  121 1    
   117   59   60 am   BACKBONE|DICT|INTERRES
   118   59  122 1    
   119   60   61 2    
   120   60   62 1    
   121   62   63 1    
   122   62   64 1    
   123   62  123 1    
   124   63  124 1    
   125   63  125 1    
   126   63  126 1    
   127   64   65 am   BACKBONE|DICT|INTERRES
   128   64  127 1    
   129   65   66 2    
@<TRIPOS>SUBSTRUCTURE
     1 UNK         1 GROUP             0       ****    0 ROOT    
