@<TRIPOS>MOLECULE
3R135
127   129    1
SMALL
USER_CHARGES


@<TRIPOS>ATOM
      1 CA        -76.6795   23.7330  -70.0363 C.3       0 UNK        -0.1998 
      2 C         -77.7835   24.2320  -70.9551 C.2       0 UNK         0.4909 
      3 O         -77.5127   24.5379  -72.1177 O.2       0 UNK        -0.5240 
      4 N         -79.0239   24.3162  -70.4446 N.am      1 UNK        -0.4739 
      5 CA        -80.2202   24.7733  -71.1718 C.3       1 UNK         0.0864 
      6 C6        -80.0585   26.2586  -71.6069 C.3       11 UNK        -0.0881 
      7 S7        -81.5837   27.1828  -71.9992 S.3       11 UNK        -0.2682 
      8 C8        -81.2126   28.8443  -71.3309 C.3       11 UNK         0.0289 
      9 C9        -79.9469   29.4597  -71.9232 C.ar      11 UNK        -0.0687 
     10 C10       -79.9904   30.1939  -73.1151 C.ar      11 UNK        -0.0823 
     11 C11       -78.8256   30.7527  -73.6619 C.ar      11 UNK        -0.0830 
     12 C12       -77.6088   30.5591  -72.9917 C.ar      11 UNK        -0.1021 
     13 C13       -77.5548   29.8383  -71.7982 C.ar      11 UNK        -0.0753 
     14 C14       -78.7263   29.3080  -71.2602 C.ar      11 UNK        -0.0933 
     15 C15       -76.2256   29.6185  -71.0989 C.3       11 UNK         0.0166 
     16 S16       -75.4546   28.0851  -71.6891 S.3       11 UNK        -0.2615 
     17 C17       -73.8124   28.2047  -70.9017 C.3       11 UNK        -0.0865 
     18 CA        -72.7848   29.0396  -71.7156 C.3       10 UNK         0.0862 
     19 C         -71.3865   28.9727  -71.0346 C.2       10 UNK         0.5551 
     20 N         -70.4104   28.2678  -71.5953 N.am      10 UNK        -0.7319 
     21 O         -71.1907   29.5678  -69.9780 O.2       10 UNK        -0.5018 
     22 N         -72.8009   28.6746  -73.1389 N.am      10 UNK        -0.4509 
     23 C         -72.1743   29.3087  -74.1376 C.2       10 UNK         0.4899 
     24 O         -71.5270   30.3456  -73.9892 O.2       10 UNK        -0.4839 
     25 CA        -72.3105   28.6900  -75.5453 C.3       9 UNK         0.0222 
     26 CB        -70.9982   28.7698  -76.3522 C.3       9 UNK        -0.1966 
     27 N         -72.8472   27.3214  -75.5412 N.am      9 UNK        -0.4218 
     28 C         -72.2954   26.2186  -75.0109 C.2       9 UNK         0.5020 
     29 O         -71.1925   26.1899  -74.4634 O.2       9 UNK        -0.5274 
     30 CA        -73.1422   24.9394  -75.0656 C.3       8 UNK         0.0270 
     31 CB        -74.0697   24.8479  -73.8397 C.3       8 UNK        -0.1976 
     32 N         -73.9241   24.8589  -76.3057 N.am      8 UNK        -0.4313 
     33 C         -73.4497   24.3089  -77.4326 C.2       8 UNK         0.5041 
     34 O         -72.3314   23.7990  -77.5191 O.2       8 UNK        -0.5577 
     35 CA        -74.3509   24.2960  -78.6745 C.3       7 UNK         0.0284 
     36 CB        -75.2059   23.0184  -78.7031 C.3       7 UNK        -0.1958 
     37 N         -75.2257   25.4674  -78.7833 N.am      7 UNK        -0.4454 
     38 C         -75.0177   26.4669  -79.6521 C.2       7 UNK         0.5089 
     39 O         -73.9945   26.5909  -80.3266 O.2       7 UNK        -0.5125 
     40 CA        -76.1623   27.4756  -79.8429 C.3       6 UNK         0.0408 
     41 CB        -77.4260   26.7894  -80.3907 C.3       6 UNK        -0.1791 
     42 N         -76.4896   28.1970  -78.6173 N.am      6 UNK        -0.4762 
     43 C         -75.7459   29.1738  -78.0770 C.2       6 UNK         0.5007 
     44 O         -74.6962   29.5868  -78.5703 O.2       6 UNK        -0.5032 
     45 CA        -76.2655   29.8150  -76.7692 C.3       5 UNK         0.0783 
     46 C46       -77.0617   31.1045  -77.0973 C.3       11 UNK        -0.0857 
     47 S47       -77.3521   32.1799  -75.6511 S.3       11 UNK        -0.2512 
     48 C48       -78.9361   31.5701  -74.9561 C.3       11 UNK         0.0225 
     49 N         -77.0759   28.9022  -75.9583 N.am      5 UNK        -0.4615 
     50 C         -76.7308   27.6877  -75.5176 C.2       4 UNK         0.5053 
     51 O         -75.6228   27.1833  -75.7066 O.2       4 UNK        -0.5105 
     52 CA        -77.8269   26.9122  -74.7649 C.3       4 UNK         0.0263 
     53 CB        -79.2551   27.2840  -75.2352 C.3       4 UNK        -0.1981 
     54 N         -77.6892   25.4542  -74.8256 N.am      4 UNK        -0.4224 
     55 C         -77.6536   24.6969  -75.9338 C.2       3 UNK         0.4895 
     56 O         -77.4566   25.1286  -77.0712 O.2       3 UNK        -0.5091 
     57 CA        -78.0087   23.2133  -75.7448 C.3       3 UNK         0.0250 
     58 CB        -76.9117   22.4475  -74.9877 C.3       3 UNK        -0.1996 
     59 N         -79.2901   23.0930  -75.0434 N.am      3 UNK        -0.4254 
     60 C         -80.4775   23.4358  -75.5662 C.2       2 UNK         0.5004 
     61 O         -80.6521   23.6662  -76.7630 O.2       2 UNK        -0.5226 
     62 CA        -81.6663   23.6101  -74.6009 C.3       2 UNK         0.0269 
     63 CB        -82.4223   22.2838  -74.3847 C.3       2 UNK        -0.1926 
     64 N         -81.3107   24.2693  -73.3322 N.am      2 UNK        -0.4687 
     65 C         -80.5716   23.7941  -72.3217 C.2       1 UNK         0.5165 
     66 O         -80.1507   22.6342  -72.2898 O.2       1 UNK        -0.5079 
     67 H67       -76.2378   22.8239  -70.4434 H         1 UNK         0.0900 
     68 H68       -75.8958   24.4859  -69.9545 H         1 UNK         0.0900 
     69 H69       -77.0486   23.5147  -69.0346 H         1 UNK         0.0900 
     70 H70       -79.1874   24.0088  -69.4959 H         1 UNK         0.2959 
     71 H71       -81.0479   24.7148  -70.4634 H         1 UNK         0.1079 
     72 H72       -79.3755   26.3455  -72.4481 H         1 UNK         0.0837 
     73 H73       -79.5748   26.7813  -70.7840 H         1 UNK         0.0837 
     74 H74       -82.0636   29.4982  -71.5268 H         1 UNK         0.0685 
     75 H75       -81.1273   28.7799  -70.2450 H         1 UNK         0.0685 
     76 H76       -80.9377   30.3275  -73.6200 H         1 UNK         0.1434 
     77 H77       -76.6870   30.9629  -73.3837 H         1 UNK         0.1329 
     78 H78       -78.6786   28.7626  -70.3283 H         1 UNK         0.1335 
     79 H79       -76.3661   29.5658  -70.0182 H         1 UNK         0.0680 
     80 H80       -75.5594   30.4617  -71.2877 H         1 UNK         0.0680 
     81 H81       -73.4464   27.1845  -70.7687 H         1 UNK         0.1032 
     82 H82       -73.9271   28.6130  -69.8956 H         1 UNK         0.1032 
     83 H83       -73.0963   30.0844  -71.6666 H         1 UNK         0.0461 
     84 H84       -69.5072   28.2291  -71.1502 H         1 UNK         0.3453 
     85 H85       -70.5717   27.7728  -72.4602 H         1 UNK         0.3453 
     86 H86       -73.3368   27.8508  -73.3656 H         1 UNK         0.2984 
     87 H87       -73.0511   29.2959  -76.0678 H         1 UNK         0.0554 
     88 H88       -70.6819   29.8052  -76.4841 H         1 UNK         0.0847 
     89 H89       -71.1189   28.3411  -77.3471 H         1 UNK         0.0847 
     90 H90       -70.1824   28.2437  -75.8556 H         1 UNK         0.0847 
     91 H91       -73.8129   27.2382  -75.8567 H         1 UNK         0.3141 
     92 H92       -72.4551   24.0920  -75.0120 H         1 UNK         0.0743 
     93 H93       -74.8149   25.6423  -73.8164 H         1 UNK         0.0784 
     94 H94       -74.5983   23.8963  -73.8143 H         1 UNK         0.0784 
     95 H95       -73.4979   24.9182  -72.9134 H         1 UNK         0.0784 
     96 H96       -74.8195   25.3354  -76.3152 H         1 UNK         0.3213 
     97 H97       -73.6870   24.2490  -79.5409 H         1 UNK         0.0855 
     98 H98       -75.9057   22.9783  -77.8707 H         1 UNK         0.0814 
     99 H99       -74.5794   22.1272  -78.6452 H         1 UNK         0.0814 
    100 H100      -75.7815   22.9492  -79.6262 H         1 UNK         0.0814 
    101 H101      -76.0893   25.4495  -78.2413 H         1 UNK         0.3105 
    102 H102      -75.8379   28.2049  -80.5886 H         1 UNK         0.0547 
    103 H103      -78.1934   27.5205  -80.6449 H         1 UNK         0.0837 
    104 H104      -77.8575   26.0891  -79.6745 H         1 UNK         0.0837 
    105 H105      -77.2022   26.2288  -81.2994 H         1 UNK         0.0837 
    106 H106      -77.3139   27.8946  -78.1186 H         1 UNK         0.3020 
    107 H107      -75.3872   30.0828  -76.1787 H         1 UNK         0.1245 
    108 H108      -78.0118   30.8686  -77.5805 H         1 UNK         0.0781 
    109 H109      -76.5115   31.7150  -77.8167 H         1 UNK         0.0781 
    110 H110      -79.4746   30.9942  -75.7097 H         1 UNK         0.0836 
    111 H111      -79.5574   32.4420  -74.7468 H         1 UNK         0.0836 
    112 H112      -77.9937   29.2410  -75.7152 H         1 UNK         0.3022 
    113 H113      -77.7180   27.1929  -73.7170 H         1 UNK         0.0747 
    114 H114      -80.0086   26.6789  -74.7325 H         1 UNK         0.0793 
    115 H115      -79.5024   28.3214  -75.0234 H         1 UNK         0.0793 
    116 H116      -79.3804   27.1276  -76.3076 H         1 UNK         0.0793 
    117 H117      -77.7287   24.9882  -73.9203 H         1 UNK         0.3047 
    118 H118      -78.1159   22.7654  -76.7350 H         1 UNK         0.0822 
    119 H119      -77.1287   21.3798  -74.9584 H         1 UNK         0.0807 
    120 H120      -76.8076   22.7908  -73.9588 H         1 UNK         0.0807 
    121 H121      -75.9420   22.5666  -75.4720 H         1 UNK         0.0807 
    122 H122      -79.2611   22.8939  -74.0485 H         1 UNK         0.2946 
    123 H123      -82.3582   24.2952  -75.0945 H         1 UNK         0.1144 
    124 H124      -81.7852   21.5090  -73.9580 H         1 UNK         0.0793 
    125 H125      -82.8016   21.8986  -75.3321 H         1 UNK         0.0793 
    126 H126      -83.2784   22.4180  -73.7237 H         1 UNK         0.0793 
    127 H127      -81.5995   25.2381  -73.2571 H         1 UNK         0.2896 
@<TRIPOS>BOND
     1    1    2 1    
     2    1   67 1    
     3    1   68 1    
     4    1   69 1    
     5    2    3 2    
     6    2    4 am   BACKBONE|DICT|INTERRES
     7    4    5 1    
     8    4   70 1    
     9    5    6 1    
    10    5   65 1    
    11    5   71 1    
    12    6    7 1    
    13    6   72 1    
    14    6   73 1    
    15    7    8 1    
    16    8    9 1    
    17    8   74 1    
    18    8   75 1    
    19    9   10 ar   
    20    9   14 ar   
    21   10   11 ar   
    22   10   76 1    
    23   11   12 ar   
    24   11   48 1    
    25   12   13 ar   
    26   12   77 1    
    27   13   14 ar   
    28   13   15 1    
    29   14   78 1    
    30   15   16 1    
    31   15   79 1    
    32   15   80 1    
    33   16   17 1    
    34   17   18 1    
    35   17   81 1    
    36   17   82 1    
    37   18   19 1    
    38   18   22 1    
    39   18   83 1    
    40   19   20 am   BACKBONE|DICT|INTERRES
    41   19   21 2    
    42   20   84 1    
    43   20   85 1    
    44   22   23 am   BACKBONE|DICT|INTERRES
    45   22   86 1    
    46   23   24 2    
    47   23   25 1    
    48   25   26 1    
    49   25   27 1    
    50   25   87 1    
    51   26   88 1    
    52   26   89 1    
    53   26   90 1    
    54   27   28 am   BACKBONE|DICT|INTERRES
    55   27   91 1    
    56   28   29 2    
    57   28   30 1    
    58   30   31 1    
    59   30   32 1    
    60   30   92 1    
    61   31   93 1    
    62   31   94 1    
    63   31   95 1    
    64   32   33 am   BACKBONE|DICT|INTERRES
    65   32   96 1    
    66   33   34 2    
    67   33   35 1    
    68   35   36 1    
    69   35   37 1    
    70   35   97 1    
    71   36   98 1    
    72   36   99 1    
    73   36  100 1    
    74   37   38 am   BACKBONE|DICT|INTERRES
    75   37  101 1    
    76   38   39 2    
    77   38   40 1    
    78   40   41 1    
    79   40   42 1    
    80   40  102 1    
    81   41  103 1    
    82   41  104 1    
    83   41  105 1    
    84   42   43 am   BACKBONE|DICT|INTERRES
    85   42  106 1    
    86   43   44 2    
    87   43   45 1    
    88   45   46 1    
    89   45   49 1    
    90   45  107 1    
    91   46   47 1    
    92   46  108 1    
    93   46  109 1    
    94   47   48 1    
    95   48  110 1    
    96   48  111 1    
    97   49   50 am   BACKBONE|DICT|INTERRES
    98   49  112 1    
    99   50   51 2    
   100   50   52 1    
   101   52   53 1    
   102   52   54 1    
   103   52  113 1    
   104   53  114 1    
   105   53  115 1    
   106   53  116 1    
   107   54   55 am   BACKBONE|DICT|INTERRES
   108   54  117 1    
   109   55   56 2    
   110   55   57 1    
   111   57   58 1    
   112   57   59 1    
   113   57  118 1    
   114   58  119 1    
   115   58  120 1    
   116   58  121 1    
   117   59   60 am   BACKBONE|DICT|INTERRES
   118   59  122 1    
   119   60   61 2    
   120   60   62 1    
   121   62   63 1    
   122   62   64 1    
   123   62  123 1    
   124   63  124 1    
   125   63  125 1    
   126   63  126 1    
   127   64   65 am   BACKBONE|DICT|INTERRES
   128   64  127 1    
   129   65   66 2    
@<TRIPOS>SUBSTRUCTURE
     1 UNK         1 GROUP             0       ****    0 ROOT    
