@<TRIPOS>MOLECULE
3R135
127   129    1
SMALL
USER_CHARGES


@<TRIPOS>ATOM
      1 CA        -77.5038   24.9301  -70.6984 C.3       0 UNK        -0.1998 
      2 C         -78.7995   24.7814  -71.4806 C.2       0 UNK         0.4909 
      3 O         -78.7627   24.4082  -72.6512 O.2       0 UNK        -0.5240 
      4 N         -79.9436   25.0511  -70.8339 N.am      1 UNK        -0.4739 
      5 CA        -81.3160   25.1034  -71.3826 C.3       1 UNK         0.0864 
      6 C6        -81.5346   26.2204  -72.4440 C.3       11 UNK        -0.0881 
      7 S7        -80.8025   27.8411  -72.0384 S.3       11 UNK        -0.2682 
      8 C8        -79.5092   27.8995  -73.3197 C.3       11 UNK         0.0289 
      9 C9        -78.6140   29.1162  -73.1766 C.ar      11 UNK        -0.0687 
     10 C10       -78.6125   30.1062  -74.1607 C.ar      11 UNK        -0.0823 
     11 C11       -77.7305   31.1867  -74.0771 C.ar      11 UNK        -0.0830 
     12 C12       -76.8815   31.3001  -72.9705 C.ar      11 UNK        -0.1021 
     13 C13       -76.8988   30.3297  -71.9635 C.ar      11 UNK        -0.0753 
     14 C14       -77.7554   29.2320  -72.0808 C.ar      11 UNK        -0.0933 
     15 C15       -76.0085   30.4617  -70.7385 C.3       11 UNK         0.0166 
     16 S16       -74.4180   29.6166  -70.9766 S.3       11 UNK        -0.2615 
     17 C17       -73.3397   31.0166  -71.4447 C.3       11 UNK        -0.0865 
     18 CA        -71.9742   30.5792  -72.0338 C.3       10 UNK         0.0862 
     19 C         -71.0823   29.8590  -70.9763 C.2       10 UNK         0.5551 
     20 N         -70.8238   28.5607  -71.0958 N.am      10 UNK        -0.7319 
     21 O         -70.6102   30.4973  -70.0386 O.2       10 UNK        -0.5018 
     22 N         -72.1535   29.8449  -73.2924 N.am      10 UNK        -0.4509 
     23 C         -71.1821   29.5854  -74.1759 C.2       10 UNK         0.4899 
     24 O         -70.0544   30.0775  -74.1092 O.2       10 UNK        -0.4839 
     25 CA        -71.5209   28.6165  -75.3266 C.3       9 UNK         0.0222 
     26 CB        -70.3132   27.7466  -75.7322 C.3       9 UNK        -0.1966 
     27 N         -72.6971   27.7685  -75.0910 N.am      9 UNK        -0.4218 
     28 C         -72.8963   26.8796  -74.1041 C.2       9 UNK         0.5020 
     29 O         -72.1242   26.7113  -73.1583 O.2       9 UNK        -0.5274 
     30 CA        -74.1759   26.0291  -74.2001 C.3       8 UNK         0.0270 
     31 CB        -75.3949   26.8077  -73.6757 C.3       8 UNK        -0.1976 
     32 N         -74.4403   25.5671  -75.5659 N.am      8 UNK        -0.4313 
     33 C         -73.6555   24.7273  -76.2586 C.2       8 UNK         0.5041 
     34 O         -72.6550   24.1788  -75.7950 O.2       8 UNK        -0.5577 
     35 CA        -74.0396   24.4674  -77.7230 C.3       7 UNK         0.0284 
     36 CB        -75.1566   23.4176  -77.8223 C.3       7 UNK        -0.1958 
     37 N         -74.4611   25.7000  -78.3896 N.am      7 UNK        -0.4454 
     38 C         -73.6209   26.5859  -78.9423 C.2       7 UNK         0.5089 
     39 O         -72.4022   26.4255  -79.0091 O.2       7 UNK        -0.5125 
     40 CA        -74.2391   27.8718  -79.5247 C.3       6 UNK         0.0408 
     41 CB        -74.4888   27.7084  -81.0323 C.3       6 UNK        -0.1791 
     42 N         -75.4868   28.2792  -78.8710 N.am      6 UNK        -0.4762 
     43 C         -75.5771   28.7014  -77.6009 C.2       6 UNK         0.5007 
     44 O         -74.6112   28.7924  -76.8450 O.2       6 UNK        -0.5032 
     45 CA        -76.9943   28.9986  -77.0646 C.3       5 UNK         0.0783 
     46 C46       -77.4470   30.4434  -77.4044 C.3       11 UNK        -0.0857 
     47 S47       -76.5233   31.7399  -76.5039 S.3       11 UNK        -0.2512 
     48 C48       -77.6888   32.2232  -75.1890 C.3       11 UNK         0.0225 
     49 N         -77.9855   28.0076  -77.5141 N.am      5 UNK        -0.4615 
     50 C         -77.9023   26.6839  -77.3166 C.2       4 UNK         0.5053 
     51 O         -76.9719   26.1425  -76.7162 O.2       4 UNK        -0.5105 
     52 CA        -78.9848   25.8240  -77.9920 C.3       4 UNK         0.0263 
     53 CB        -78.6938   25.7021  -79.4980 C.3       4 UNK        -0.1981 
     54 N         -79.0583   24.4747  -77.4241 N.am      4 UNK        -0.4224 
     55 C         -79.5987   24.1733  -76.2366 C.2       3 UNK         0.4895 
     56 O         -80.1670   25.0006  -75.5230 O.2       3 UNK        -0.5091 
     57 CA        -79.5153   22.6976  -75.8056 C.3       3 UNK         0.0250 
     58 CB        -78.0661   22.1744  -75.8134 C.3       3 UNK        -0.1996 
     59 N         -80.0658   22.5160  -74.4616 N.am      3 UNK        -0.4254 
     60 C         -80.8681   21.5110  -74.0793 C.2       2 UNK         0.5004 
     61 O         -81.2705   20.6344  -74.8459 O.2       2 UNK        -0.5226 
     62 CA        -81.2828   21.4359  -72.5944 C.3       2 UNK         0.0269 
     63 CB        -80.5161   20.3101  -71.8804 C.3       2 UNK        -0.1926 
     64 N         -81.0512   22.6897  -71.8770 N.am      2 UNK        -0.4687 
     65 C         -81.8543   23.7589  -71.9342 C.2       1 UNK         0.5165 
     66 O         -82.9842   23.7181  -72.4248 O.2       1 UNK        -0.5079 
     67 H67       -76.9320   24.0035  -70.7387 H         1 UNK         0.0900 
     68 H68       -77.6838   25.1736  -69.6516 H         1 UNK         0.0900 
     69 H69       -76.8968   25.7241  -71.1319 H         1 UNK         0.0900 
     70 H70       -79.8839   25.3192  -69.8611 H         1 UNK         0.2959 
     71 H71       -81.9548   25.3402  -70.5303 H         1 UNK         0.1079 
     72 H72       -81.1506   25.8957  -73.4099 H         1 UNK         0.0837 
     73 H73       -82.6031   26.3811  -72.5994 H         1 UNK         0.0837 
     74 H74       -79.9826   27.8809  -74.3029 H         1 UNK         0.0685 
     75 H75       -78.8888   27.0056  -73.2688 H         1 UNK         0.0685 
     76 H76       -79.2762   30.0178  -75.0093 H         1 UNK         0.1434 
     77 H77       -76.2069   32.1417  -72.8945 H         1 UNK         0.1329 
     78 H78       -77.7591   28.4669  -71.3164 H         1 UNK         0.1335 
     79 H79       -75.8486   31.5123  -70.4912 H         1 UNK         0.0680 
     80 H80       -76.5082   30.0230  -69.8734 H         1 UNK         0.0680 
     81 H81       -73.8642   31.6376  -72.1723 H         1 UNK         0.1032 
     82 H82       -73.1893   31.6509  -70.5689 H         1 UNK         0.1032 
     83 H83       -71.4383   31.4957  -72.2885 H         1 UNK         0.0461 
     84 H84       -71.2358   28.0201  -71.8490 H         1 UNK         0.3453 
     85 H85       -70.2434   28.1064  -70.4095 H         1 UNK         0.3453 
     86 H86       -73.0440   29.3847  -73.4089 H         1 UNK         0.2984 
     87 H87       -71.7763   29.2449  -76.1809 H         1 UNK         0.0554 
     88 H88       -70.5628   27.0883  -76.5649 H         1 UNK         0.0847 
     89 H89       -69.9691   27.1247  -74.9051 H         1 UNK         0.0847 
     90 H90       -69.4710   28.3622  -76.0501 H         1 UNK         0.0847 
     91 H91       -73.4455   27.9003  -75.7706 H         1 UNK         0.3141 
     92 H92       -74.0380   25.1467  -73.5720 H         1 UNK         0.0743 
     93 H93       -75.2447   27.1150  -72.6402 H         1 UNK         0.0784 
     94 H94       -75.5833   27.7105  -74.2575 H         1 UNK         0.0784 
     95 H95       -76.2991   26.1984  -73.7055 H         1 UNK         0.0784 
     96 H96       -75.2944   25.9046  -76.0065 H         1 UNK         0.3213 
     97 H97       -73.1600   24.0681  -78.2333 H         1 UNK         0.0855 
     98 H98       -76.0711   23.7598  -77.3410 H         1 UNK         0.0814 
     99 H99       -74.8608   22.4864  -77.3372 H         1 UNK         0.0814 
    100 H100      -75.3902   23.1833  -78.8609 H         1 UNK         0.0814 
    101 H101      -75.4400   25.9418  -78.3206 H         1 UNK         0.3105 
    102 H102      -73.5121   28.6750  -79.3856 H         1 UNK         0.0547 
    103 H103      -75.2258   26.9314  -81.2391 H         1 UNK         0.0837 
    104 H104      -74.8429   28.6371  -81.4801 H         1 UNK         0.0837 
    105 H105      -73.5702   27.4315  -81.5517 H         1 UNK         0.0837 
    106 H106      -76.3312   28.2251  -79.4221 H         1 UNK         0.3020 
    107 H107      -76.9347   28.9025  -75.9790 H         1 UNK         0.1245 
    108 H108      -78.5089   30.5659  -77.1892 H         1 UNK         0.0781 
    109 H109      -77.3484   30.6352  -78.4746 H         1 UNK         0.0781 
    110 H110      -77.3775   33.1871  -74.7833 H         1 UNK         0.0836 
    111 H111      -78.6839   32.3814  -75.6077 H         1 UNK         0.0836 
    112 H112      -78.7699   28.3686  -78.0378 H         1 UNK         0.3022 
    113 H113      -79.9517   26.3132  -77.8549 H         1 UNK         0.0747 
    114 H114      -78.6793   26.6799  -79.9810 H         1 UNK         0.0793 
    115 H115      -79.4589   25.1107  -80.0017 H         1 UNK         0.0793 
    116 H116      -77.7285   25.2302  -79.6877 H         1 UNK         0.0793 
    117 H117      -78.6016   23.7430  -77.9471 H         1 UNK         0.3047 
    118 H118      -80.1032   22.1249  -76.5258 H         1 UNK         0.0822 
    119 H119      -77.6743   22.1074  -76.8278 H         1 UNK         0.0807 
    120 H120      -78.0030   21.1727  -75.3878 H         1 UNK         0.0807 
    121 H121      -77.4026   22.8225  -75.2380 H         1 UNK         0.0807 
    122 H122      -79.7941   23.2315  -73.7897 H         1 UNK         0.2946 
    123 H123      -82.3488   21.1980  -72.5655 H         1 UNK         0.1144 
    124 H124      -80.6886   19.3496  -72.3681 H         1 UNK         0.0793 
    125 H125      -80.8368   20.2071  -70.8435 H         1 UNK         0.0793 
    126 H126      -79.4401   20.4889  -71.8843 H         1 UNK         0.0793 
    127 H127      -80.1315   22.8235  -71.4810 H         1 UNK         0.2896 
@<TRIPOS>BOND
     1    1    2 1    
     2    1   67 1    
     3    1   68 1    
     4    1   69 1    
     5    2    3 2    
     6    2    4 am   BACKBONE|DICT|INTERRES
     7    4    5 1    
     8    4   70 1    
     9    5    6 1    
    10    5   65 1    
    11    5   71 1    
    12    6    7 1    
    13    6   72 1    
    14    6   73 1    
    15    7    8 1    
    16    8    9 1    
    17    8   74 1    
    18    8   75 1    
    19    9   10 ar   
    20    9   14 ar   
    21   10   11 ar   
    22   10   76 1    
    23   11   12 ar   
    24   11   48 1    
    25   12   13 ar   
    26   12   77 1    
    27   13   14 ar   
    28   13   15 1    
    29   14   78 1    
    30   15   16 1    
    31   15   79 1    
    32   15   80 1    
    33   16   17 1    
    34   17   18 1    
    35   17   81 1    
    36   17   82 1    
    37   18   19 1    
    38   18   22 1    
    39   18   83 1    
    40   19   20 am   BACKBONE|DICT|INTERRES
    41   19   21 2    
    42   20   84 1    
    43   20   85 1    
    44   22   23 am   BACKBONE|DICT|INTERRES
    45   22   86 1    
    46   23   24 2    
    47   23   25 1    
    48   25   26 1    
    49   25   27 1    
    50   25   87 1    
    51   26   88 1    
    52   26   89 1    
    53   26   90 1    
    54   27   28 am   BACKBONE|DICT|INTERRES
    55   27   91 1    
    56   28   29 2    
    57   28   30 1    
    58   30   31 1    
    59   30   32 1    
    60   30   92 1    
    61   31   93 1    
    62   31   94 1    
    63   31   95 1    
    64   32   33 am   BACKBONE|DICT|INTERRES
    65   32   96 1    
    66   33   34 2    
    67   33   35 1    
    68   35   36 1    
    69   35   37 1    
    70   35   97 1    
    71   36   98 1    
    72   36   99 1    
    73   36  100 1    
    74   37   38 am   BACKBONE|DICT|INTERRES
    75   37  101 1    
    76   38   39 2    
    77   38   40 1    
    78   40   41 1    
    79   40   42 1    
    80   40  102 1    
    81   41  103 1    
    82   41  104 1    
    83   41  105 1    
    84   42   43 am   BACKBONE|DICT|INTERRES
    85   42  106 1    
    86   43   44 2    
    87   43   45 1    
    88   45   46 1    
    89   45   49 1    
    90   45  107 1    
    91   46   47 1    
    92   46  108 1    
    93   46  109 1    
    94   47   48 1    
    95   48  110 1    
    96   48  111 1    
    97   49   50 am   BACKBONE|DICT|INTERRES
    98   49  112 1    
    99   50   51 2    
   100   50   52 1    
   101   52   53 1    
   102   52   54 1    
   103   52  113 1    
   104   53  114 1    
   105   53  115 1    
   106   53  116 1    
   107   54   55 am   BACKBONE|DICT|INTERRES
   108   54  117 1    
   109   55   56 2    
   110   55   57 1    
   111   57   58 1    
   112   57   59 1    
   113   57  118 1    
   114   58  119 1    
   115   58  120 1    
   116   58  121 1    
   117   59   60 am   BACKBONE|DICT|INTERRES
   118   59  122 1    
   119   60   61 2    
   120   60   62 1    
   121   62   63 1    
   122   62   64 1    
   123   62  123 1    
   124   63  124 1    
   125   63  125 1    
   126   63  126 1    
   127   64   65 am   BACKBONE|DICT|INTERRES
   128   64  127 1    
   129   65   66 2    
@<TRIPOS>SUBSTRUCTURE
     1 UNK         1 GROUP             0       ****    0 ROOT    
