@<TRIPOS>MOLECULE
3R135
127   129    1
SMALL
USER_CHARGES


@<TRIPOS>ATOM
      1 CA        -84.2901   29.3158  -73.7159 C.3       0 UNK        -0.1998 
      2 C         -83.6249   28.0236  -73.2659 C.2       0 UNK         0.4909 
      3 O         -84.3203   27.0803  -72.8868 O.2       0 UNK        -0.5240 
      4 N         -82.2865   27.9828  -73.3084 N.am      1 UNK        -0.4739 
      5 CA        -81.4342   26.8349  -72.9680 C.3       1 UNK         0.0864 
      6 C6        -81.5097   26.3928  -71.4740 C.3       11 UNK        -0.0881 
      7 S7        -81.3457   27.7646  -70.2760 S.3       11 UNK        -0.2682 
      8 C8        -79.5767   27.6996  -69.8140 C.3       11 UNK         0.0289 
      9 C9        -78.5960   28.2766  -70.8384 C.ar      11 UNK        -0.0687 
     10 C10       -79.0034   29.1007  -71.8955 C.ar      11 UNK        -0.0823 
     11 C11       -78.0820   29.5891  -72.8250 C.ar      11 UNK        -0.0830 
     12 C12       -76.7254   29.3003  -72.6607 C.ar      11 UNK        -0.1021 
     13 C13       -76.2948   28.5131  -71.5895 C.ar      11 UNK        -0.0753 
     14 C14       -77.2335   27.9959  -70.6914 C.ar      11 UNK        -0.0933 
     15 C15       -74.8127   28.2370  -71.4016 C.3       11 UNK         0.0166 
     16 S16       -73.9905   29.6753  -70.6470 S.3       11 UNK        -0.2615 
     17 C17       -72.2349   29.1806  -70.7061 C.3       11 UNK        -0.0865 
     18 CA        -71.4819   29.8038  -71.9120 C.3       10 UNK         0.0862 
     19 C         -69.9463   29.5693  -71.7900 C.2       10 UNK         0.5551 
     20 N         -69.3008   28.8322  -72.6871 N.am      10 UNK        -0.7319 
     21 O         -69.3262   30.0743  -70.8574 O.2       10 UNK        -0.5018 
     22 N         -72.0662   29.3557  -73.1827 N.am      10 UNK        -0.4509 
     23 C         -71.9022   29.9351  -74.3772 C.2       10 UNK         0.4899 
     24 O         -71.3156   31.0047  -74.5477 O.2       10 UNK        -0.4839 
     25 CA        -72.4939   29.1694  -75.5804 C.3       9 UNK         0.0222 
     26 CB        -71.7843   29.5011  -76.9090 C.3       9 UNK        -0.1966 
     27 N         -72.5522   27.7134  -75.3759 N.am      9 UNK        -0.4218 
     28 C         -71.5261   26.8904  -75.1012 C.2       9 UNK         0.5020 
     29 O         -70.3572   27.2608  -74.9859 O.2       9 UNK        -0.5274 
     30 CA        -71.8640   25.4120  -74.8799 C.3       8 UNK         0.0270 
     31 CB        -72.4267   25.1893  -73.4644 C.3       8 UNK        -0.1976 
     32 N         -72.8264   24.9416  -75.8778 N.am      8 UNK        -0.4313 
     33 C         -72.5416   24.0657  -76.8495 C.2       8 UNK         0.5041 
     34 O         -71.4460   23.5189  -76.9869 O.2       8 UNK        -0.5577 
     35 CA        -73.6669   23.7293  -77.8399 C.3       7 UNK         0.0284 
     36 CB        -74.5477   22.5946  -77.2911 C.3       7 UNK        -0.1958 
     37 N         -74.5079   24.8756  -78.1917 N.am      7 UNK        -0.4454 
     38 C         -74.1119   25.9096  -78.9486 C.2       7 UNK         0.5089 
     39 O         -72.9639   26.0508  -79.3699 O.2       7 UNK        -0.5125 
     40 CA        -75.1775   26.9529  -79.3172 C.3       6 UNK         0.0408 
     41 CB        -76.0360   26.4471  -80.4879 C.3       6 UNK        -0.1791 
     42 N         -76.0455   27.2511  -78.1784 N.am      6 UNK        -0.4762 
     43 C         -76.0336   28.3977  -77.4842 C.2       6 UNK         0.5007 
     44 O         -75.3355   29.3685  -77.7765 O.2       6 UNK        -0.5032 
     45 CA        -76.9465   28.4832  -76.2413 C.3       5 UNK         0.0783 
     46 C46       -78.2374   29.2707  -76.5793 C.3       11 UNK        -0.0857 
     47 S47       -79.4439   29.3935  -75.2146 S.3       11 UNK        -0.2512 
     48 C48       -78.5705   30.4296  -73.9957 C.3       11 UNK         0.0225 
     49 N         -77.2238   27.1778  -75.6311 N.am      5 UNK        -0.4615 
     50 C         -76.2974   26.3698  -75.1005 C.2       4 UNK         0.5053 
     51 O         -75.0944   26.6306  -75.0782 O.2       4 UNK        -0.5105 
     52 CA        -76.7718   25.0165  -74.5504 C.3       4 UNK         0.0263 
     53 CB        -77.1783   25.1664  -73.0761 C.3       4 UNK        -0.1981 
     54 N         -77.8684   24.3794  -75.2894 N.am      4 UNK        -0.4224 
     55 C         -77.9815   24.2017  -76.6138 C.2       3 UNK         0.4895 
     56 O         -77.1792   24.6497  -77.4336 O.2       3 UNK        -0.5091 
     57 CA        -79.1947   23.4063  -77.1344 C.3       3 UNK         0.0250 
     58 CB        -78.7886   21.9595  -77.4752 C.3       3 UNK        -0.1996 
     59 N         -80.3905   23.4438  -76.2753 N.am      3 UNK        -0.4254 
     60 C         -80.5642   22.9346  -75.0472 C.2       2 UNK         0.5004 
     61 O         -79.6914   22.3322  -74.4206 O.2       2 UNK        -0.5226 
     62 CA        -81.9033   23.2478  -74.3616 C.3       2 UNK         0.0269 
     63 CB        -82.3887   22.0744  -73.4917 C.3       2 UNK        -0.1926 
     64 N         -81.7683   24.4410  -73.5234 N.am      2 UNK        -0.4687 
     65 C         -81.6470   25.6932  -73.9883 C.2       1 UNK         0.5165 
     66 O         -81.6830   25.9674  -75.1906 O.2       1 UNK        -0.5079 
     67 H67       -83.5607   30.0637  -74.0270 H         1 UNK         0.0900 
     68 H68       -84.8804   29.7364  -72.9023 H         1 UNK         0.0900 
     69 H69       -84.9561   29.1220  -74.5563 H         1 UNK         0.0900 
     70 H70       -81.7895   28.7780  -73.6843 H         1 UNK         0.2959 
     71 H71       -80.4115   27.1624  -73.1526 H         1 UNK         0.1079 
     72 H72       -80.7406   25.6496  -71.2562 H         1 UNK         0.0837 
     73 H73       -82.4671   25.9102  -71.2693 H         1 UNK         0.0837 
     74 H74       -79.4543   28.2568  -68.8845 H         1 UNK         0.0685 
     75 H75       -79.3095   26.6663  -69.5875 H         1 UNK         0.0685 
     76 H76       -80.0447   29.3594  -72.0180 H         1 UNK         0.1434 
     77 H77       -75.9961   29.6994  -73.3511 H         1 UNK         0.1329 
     78 H78       -76.8998   27.3829  -69.8652 H         1 UNK         0.1335 
     79 H79       -74.3648   28.0098  -72.3692 H         1 UNK         0.0680 
     80 H80       -74.6596   27.3582  -70.7731 H         1 UNK         0.0680 
     81 H81       -71.7817   29.5055  -69.7673 H         1 UNK         0.1032 
     82 H82       -72.1531   28.0921  -70.7148 H         1 UNK         0.1032 
     83 H83       -71.6180   30.8859  -71.8613 H         1 UNK         0.0461 
     84 H84       -68.3073   28.6997  -72.5865 H         1 UNK         0.3453 
     85 H85       -69.7851   28.4055  -73.4700 H         1 UNK         0.3453 
     86 H86       -72.5543   28.4754  -73.1543 H         1 UNK         0.2984 
     87 H87       -73.5285   29.5033  -75.6657 H         1 UNK         0.0554 
     88 H88       -72.2402   28.9663  -77.7427 H         1 UNK         0.0847 
     89 H89       -70.7261   29.2397  -76.8791 H         1 UNK         0.0847 
     90 H90       -71.8519   30.5658  -77.1350 H         1 UNK         0.0847 
     91 H91       -73.4919   27.3178  -75.3673 H         1 UNK         0.3141 
     92 H92       -70.9290   24.8526  -74.9549 H         1 UNK         0.0743 
     93 H93       -73.3646   25.7202  -73.3021 H         1 UNK         0.0784 
     94 H94       -72.6093   24.1309  -73.2778 H         1 UNK         0.0784 
     95 H95       -71.7215   25.5333  -72.7064 H         1 UNK         0.0784 
     96 H96       -73.7484   25.3625  -75.8517 H         1 UNK         0.3213 
     97 H97       -73.1957   23.3724  -78.7585 H         1 UNK         0.0855 
     98 H98       -73.9489   21.7113  -77.0645 H         1 UNK         0.0814 
     99 H99       -75.3050   22.2944  -78.0155 H         1 UNK         0.0814 
    100 H100      -75.0592   22.8847  -76.3734 H         1 UNK         0.0814 
    101 H101      -75.4872   24.8189  -77.9158 H         1 UNK         0.3105 
    102 H102      -74.6563   27.8534  -79.6490 H         1 UNK         0.0547 
    103 H103      -75.4156   26.2077  -81.3526 H         1 UNK         0.0837 
    104 H104      -76.5924   25.5464  -80.2248 H         1 UNK         0.0837 
    105 H105      -76.7548   27.2027  -80.8049 H         1 UNK         0.0837 
    106 H106      -76.6339   26.4916  -77.8486 H         1 UNK         0.3020 
    107 H107      -76.3837   29.0603  -75.5080 H         1 UNK         0.1245 
    108 H108      -78.7534   28.8014  -77.4194 H         1 UNK         0.0781 
    109 H109      -77.9918   30.2828  -76.9073 H         1 UNK         0.0781 
    110 H110      -79.2566   31.1937  -73.6273 H         1 UNK         0.0836 
    111 H111      -77.7465   30.9664  -74.4679 H         1 UNK         0.0836 
    112 H112      -78.1909   26.8900  -75.6126 H         1 UNK         0.3022 
    113 H113      -75.9213   24.3347  -74.5985 H         1 UNK         0.0747 
    114 H114      -76.3596   25.5814  -72.4864 H         1 UNK         0.0793 
    115 H115      -78.0339   25.8328  -72.9578 H         1 UNK         0.0793 
    116 H116      -77.4375   24.2044  -72.6335 H         1 UNK         0.0793 
    117 H117      -78.5496   23.8798  -74.7267 H         1 UNK         0.3047 
    118 H118      -79.4911   23.8899  -78.0666 H         1 UNK         0.0822 
    119 H119      -78.4429   21.4134  -76.5970 H         1 UNK         0.0807 
    120 H120      -77.9760   21.9456  -78.2030 H         1 UNK         0.0807 
    121 H121      -79.6206   21.4054  -77.9096 H         1 UNK         0.0807 
    122 H122      -81.1453   24.0118  -76.6388 H         1 UNK         0.2946 
    123 H123      -82.6585   23.4338  -75.1291 H         1 UNK         0.1144 
    124 H124      -82.4841   21.1641  -74.0852 H         1 UNK         0.0793 
    125 H125      -81.6993   21.8589  -72.6742 H         1 UNK         0.0793 
    126 H126      -83.3674   22.2814  -73.0582 H         1 UNK         0.0793 
    127 H127      -81.7188   24.2830  -72.5277 H         1 UNK         0.2896 
@<TRIPOS>BOND
     1    1    2 1    
     2    1   67 1    
     3    1   68 1    
     4    1   69 1    
     5    2    3 2    
     6    2    4 am   BACKBONE|DICT|INTERRES
     7    4    5 1    
     8    4   70 1    
     9    5    6 1    
    10    5   65 1    
    11    5   71 1    
    12    6    7 1    
    13    6   72 1    
    14    6   73 1    
    15    7    8 1    
    16    8    9 1    
    17    8   74 1    
    18    8   75 1    
    19    9   10 ar   
    20    9   14 ar   
    21   10   11 ar   
    22   10   76 1    
    23   11   12 ar   
    24   11   48 1    
    25   12   13 ar   
    26   12   77 1    
    27   13   14 ar   
    28   13   15 1    
    29   14   78 1    
    30   15   16 1    
    31   15   79 1    
    32   15   80 1    
    33   16   17 1    
    34   17   18 1    
    35   17   81 1    
    36   17   82 1    
    37   18   19 1    
    38   18   22 1    
    39   18   83 1    
    40   19   20 am   BACKBONE|DICT|INTERRES
    41   19   21 2    
    42   20   84 1    
    43   20   85 1    
    44   22   23 am   BACKBONE|DICT|INTERRES
    45   22   86 1    
    46   23   24 2    
    47   23   25 1    
    48   25   26 1    
    49   25   27 1    
    50   25   87 1    
    51   26   88 1    
    52   26   89 1    
    53   26   90 1    
    54   27   28 am   BACKBONE|DICT|INTERRES
    55   27   91 1    
    56   28   29 2    
    57   28   30 1    
    58   30   31 1    
    59   30   32 1    
    60   30   92 1    
    61   31   93 1    
    62   31   94 1    
    63   31   95 1    
    64   32   33 am   BACKBONE|DICT|INTERRES
    65   32   96 1    
    66   33   34 2    
    67   33   35 1    
    68   35   36 1    
    69   35   37 1    
    70   35   97 1    
    71   36   98 1    
    72   36   99 1    
    73   36  100 1    
    74   37   38 am   BACKBONE|DICT|INTERRES
    75   37  101 1    
    76   38   39 2    
    77   38   40 1    
    78   40   41 1    
    79   40   42 1    
    80   40  102 1    
    81   41  103 1    
    82   41  104 1    
    83   41  105 1    
    84   42   43 am   BACKBONE|DICT|INTERRES
    85   42  106 1    
    86   43   44 2    
    87   43   45 1    
    88   45   46 1    
    89   45   49 1    
    90   45  107 1    
    91   46   47 1    
    92   46  108 1    
    93   46  109 1    
    94   47   48 1    
    95   48  110 1    
    96   48  111 1    
    97   49   50 am   BACKBONE|DICT|INTERRES
    98   49  112 1    
    99   50   51 2    
   100   50   52 1    
   101   52   53 1    
   102   52   54 1    
   103   52  113 1    
   104   53  114 1    
   105   53  115 1    
   106   53  116 1    
   107   54   55 am   BACKBONE|DICT|INTERRES
   108   54  117 1    
   109   55   56 2    
   110   55   57 1    
   111   57   58 1    
   112   57   59 1    
   113   57  118 1    
   114   58  119 1    
   115   58  120 1    
   116   58  121 1    
   117   59   60 am   BACKBONE|DICT|INTERRES
   118   59  122 1    
   119   60   61 2    
   120   60   62 1    
   121   62   63 1    
   122   62   64 1    
   123   62  123 1    
   124   63  124 1    
   125   63  125 1    
   126   63  126 1    
   127   64   65 am   BACKBONE|DICT|INTERRES
   128   64  127 1    
   129   65   66 2    
@<TRIPOS>SUBSTRUCTURE
     1 UNK         1 GROUP             0       ****    0 ROOT    
