@<TRIPOS>MOLECULE
3R135
127   129    1
SMALL
USER_CHARGES


@<TRIPOS>ATOM
      1 CA        -81.4516   25.5817  -70.1171 C.3       0 UNK        -0.1998 
      2 C         -82.4668   26.0242  -71.1596 C.2       0 UNK         0.4909 
      3 O         -83.5666   25.4738  -71.2158 O.2       0 UNK        -0.5240 
      4 N         -82.1084   27.0195  -71.9814 N.am      1 UNK        -0.4739 
      5 CA        -82.9359   27.5497  -73.0737 C.3       1 UNK         0.0864 
      6 C6        -82.4399   28.9380  -73.5586 C.3       11 UNK        -0.0881 
      7 S7        -80.6732   28.9677  -74.0286 S.3       11 UNK        -0.2682 
      8 C8        -79.9297   29.8102  -72.5960 C.3       11 UNK         0.0289 
      9 C9        -78.4837   29.3777  -72.4289 C.ar      11 UNK        -0.0687 
     10 C10       -78.1852   28.2230  -71.7011 C.ar      11 UNK        -0.0823 
     11 C11       -76.8699   27.7564  -71.6099 C.ar      11 UNK        -0.0830 
     12 C12       -75.8466   28.4964  -72.2094 C.ar      11 UNK        -0.1021 
     13 C13       -76.1240   29.6776  -72.9043 C.ar      11 UNK        -0.0753 
     14 C14       -77.4493   30.1077  -73.0208 C.ar      11 UNK        -0.0933 
     15 C15       -74.9965   30.4766  -73.5436 C.3       11 UNK         0.0166 
     16 S16       -73.7911   31.0416  -72.2981 S.3       11 UNK        -0.2615 
     17 C17       -72.9367   32.4013  -73.1718 C.3       11 UNK        -0.0865 
     18 CA        -71.5723   32.0120  -73.7992 C.3       10 UNK         0.0862 
     19 C         -70.4758   31.6901  -72.7389 C.2       10 UNK         0.5551 
     20 N         -69.7888   30.5547  -72.8028 N.am      10 UNK        -0.7319 
     21 O         -70.2293   32.5005  -71.8488 O.2       10 UNK        -0.5018 
     22 N         -71.7388   30.9908  -74.8413 N.am      10 UNK        -0.4509 
     23 C         -70.9613   30.8616  -75.9216 C.2       10 UNK         0.4899 
     24 O         -70.0527   31.6423  -76.2105 O.2       10 UNK        -0.4839 
     25 CA        -71.2577   29.6494  -76.8250 C.3       9 UNK         0.0222 
     26 CB        -70.0983   29.3260  -77.7909 C.3       9 UNK        -0.1966 
     27 N         -71.6565   28.4452  -76.0836 N.am      9 UNK        -0.4218 
     28 C         -70.9459   27.7924  -75.1468 C.2       9 UNK         0.5020 
     29 O         -69.8762   28.2027  -74.6941 O.2       9 UNK        -0.5274 
     30 CA        -71.5167   26.4656  -74.6015 C.3       8 UNK         0.0270 
     31 CB        -72.0883   26.6817  -73.1913 C.3       8 UNK        -0.1976 
     32 N         -72.5496   25.8643  -75.4522 N.am      8 UNK        -0.4313 
     33 C         -72.3551   25.4243  -76.7063 C.2       8 UNK         0.5041 
     34 O         -71.2403   25.3178  -77.2192 O.2       8 UNK        -0.5577 
     35 CA        -73.5967   25.0880  -77.5601 C.3       7 UNK         0.0284 
     36 CB        -73.7464   23.5641  -77.7008 C.3       7 UNK        -0.1958 
     37 N         -74.8623   25.6485  -77.0716 N.am      7 UNK        -0.4454 
     38 C         -75.1205   26.9351  -76.7924 C.2       7 UNK         0.5089 
     39 O         -74.3336   27.8557  -77.0172 O.2       7 UNK        -0.5125 
     40 CA        -76.4391   27.2387  -76.0569 C.3       6 UNK         0.0408 
     41 CB        -77.5184   27.7015  -77.0445 C.3       6 UNK        -0.1791 
     42 N         -76.9577   26.1256  -75.2518 N.am      6 UNK        -0.4762 
     43 C         -76.3046   25.5064  -74.2535 C.2       6 UNK         0.5007 
     44 O         -75.1373   25.7470  -73.9424 O.2       6 UNK        -0.5032 
     45 CA        -77.0776   24.3937  -73.5231 C.3       5 UNK         0.0783 
     46 C46       -78.2259   24.9630  -72.6465 C.3       11 UNK        -0.0857 
     47 S47       -77.7959   25.1615  -70.8832 S.3       11 UNK        -0.2512 
     48 C48       -76.5135   26.4676  -70.8692 C.3       11 UNK         0.0225 
     49 N         -77.5778   23.4415  -74.5134 N.am      5 UNK        -0.4615 
     50 C         -76.8596   22.4420  -75.0411 C.2       4 UNK         0.5053 
     51 O         -75.7286   22.1385  -74.6626 O.2       4 UNK        -0.5105 
     52 CA        -77.5026   21.6473  -76.1935 C.3       4 UNK         0.0263 
     53 CB        -78.1475   20.3579  -75.6605 C.3       4 UNK        -0.1981 
     54 N         -78.5032   22.4105  -76.9457 N.am      4 UNK        -0.4224 
     55 C         -78.2354   23.4873  -77.6985 C.2       3 UNK         0.4895 
     56 O         -77.1040   23.9349  -77.8766 O.2       3 UNK        -0.5091 
     57 CA        -79.4400   24.2205  -78.3128 C.3       3 UNK         0.0250 
     58 CB        -79.8052   23.6059  -79.6733 C.3       3 UNK        -0.1996 
     59 N         -80.6284   24.2493  -77.4512 N.am      3 UNK        -0.4254 
     60 C         -80.6759   24.7571  -76.2113 C.2       2 UNK         0.5004 
     61 O         -79.6970   25.2137  -75.6127 O.2       2 UNK        -0.5226 
     62 CA        -82.0314   24.6842  -75.5028 C.3       2 UNK         0.0269 
     63 CB        -82.2242   23.3014  -74.8570 C.3       2 UNK        -0.1926 
     64 N         -82.0818   25.7029  -74.4584 N.am      2 UNK        -0.4687 
     65 C         -83.0946   26.5513  -74.2425 C.2       1 UNK         0.5165 
     66 O         -84.1326   26.5599  -74.9069 O.2       1 UNK        -0.5079 
     67 H67       -81.0347   24.6119  -70.3873 H         1 UNK         0.0900 
     68 H68       -80.6308   26.2914  -70.0205 H         1 UNK         0.0900 
     69 H69       -81.9289   25.4881  -69.1421 H         1 UNK         0.0900 
     70 H70       -81.1913   27.4316  -71.9026 H         1 UNK         0.2959 
     71 H71       -83.9414   27.6934  -72.6710 H         1 UNK         0.1079 
     72 H72       -82.6169   29.6802  -72.7788 H         1 UNK         0.0837 
     73 H73       -83.0291   29.2786  -74.4123 H         1 UNK         0.0837 
     74 H74       -80.4867   29.5796  -71.6867 H         1 UNK         0.0685 
     75 H75       -79.9976   30.8903  -72.7347 H         1 UNK         0.0685 
     76 H76       -78.9852   27.6698  -71.2330 H         1 UNK         0.1434 
     77 H77       -74.8245   28.1539  -72.1335 H         1 UNK         0.1329 
     78 H78       -77.6801   31.0045  -73.5792 H         1 UNK         0.1335 
     79 H79       -75.4014   31.3381  -74.0765 H         1 UNK         0.0680 
     80 H80       -74.4931   29.8569  -74.2869 H         1 UNK         0.0680 
     81 H81       -72.8005   33.2207  -72.4635 H         1 UNK         0.1032 
     82 H82       -73.5909   32.8065  -73.9449 H         1 UNK         0.1032 
     83 H83       -71.2098   32.9151  -74.2943 H         1 UNK         0.0461 
     84 H84       -69.9488   29.8807  -73.5428 H         1 UNK         0.3453 
     85 H85       -69.0802   30.3733  -72.1103 H         1 UNK         0.3453 
     86 H86       -72.4345   30.2841  -74.6589 H         1 UNK         0.2984 
     87 H87       -72.1214   29.9284  -77.4302 H         1 UNK         0.0554 
     88 H88       -69.8830   30.1724  -78.4443 H         1 UNK         0.0847 
     89 H89       -70.3408   28.4776  -78.4310 H         1 UNK         0.0847 
     90 H90       -69.1798   29.0877  -77.2532 H         1 UNK         0.0847 
     91 H91       -72.5571   28.0578  -76.3586 H         1 UNK         0.3141 
     92 H92       -70.6882   25.7579  -74.5341 H         1 UNK         0.0743 
     93 H93       -71.3280   27.0750  -72.5149 H         1 UNK         0.0784 
     94 H94       -72.9140   27.3931  -73.2023 H         1 UNK         0.0784 
     95 H95       -72.4544   25.7491  -72.7615 H         1 UNK         0.0784 
     96 H96       -73.4966   25.8712  -75.0811 H         1 UNK         0.3213 
     97 H97       -73.4221   25.5097  -78.5517 H         1 UNK         0.0855 
     98 H98       -73.9902   23.0947  -76.7468 H         1 UNK         0.0814 
     99 H99       -72.8231   23.1095  -78.0625 H         1 UNK         0.0814 
    100 H100      -74.5301   23.3054  -78.4127 H         1 UNK         0.0814 
    101 H101      -75.6194   24.9862  -76.9364 H         1 UNK         0.3105 
    102 H102      -76.2407   28.0600  -75.3662 H         1 UNK         0.0547 
    103 H103      -78.4486   27.9488  -76.5316 H         1 UNK         0.0837 
    104 H104      -77.7342   26.9349  -77.7874 H         1 UNK         0.0837 
    105 H105      -77.1961   28.5941  -77.5820 H         1 UNK         0.0837 
    106 H106      -77.9185   25.8458  -75.4377 H         1 UNK         0.3020 
    107 H107      -76.3689   23.8703  -72.8765 H         1 UNK         0.1245 
    108 H108      -79.0711   24.2725  -72.6560 H         1 UNK         0.0781 
    109 H109      -78.6332   25.8940  -73.0438 H         1 UNK         0.0781 
    110 H110      -75.5941   26.0439  -71.2758 H         1 UNK         0.0836 
    111 H111      -76.2942   26.7202  -69.8312 H         1 UNK         0.0836 
    112 H112      -78.4733   23.6695  -74.9270 H         1 UNK         0.3022 
    113 H113      -76.7028   21.3721  -76.8847 H         1 UNK         0.0747 
    114 H114      -78.5349   19.7421  -76.4725 H         1 UNK         0.0793 
    115 H115      -77.4193   19.7533  -75.1177 H         1 UNK         0.0793 
    116 H116      -78.9698   20.5699  -74.9758 H         1 UNK         0.0793 
    117 H117      -79.4644   22.1142  -76.8596 H         1 UNK         0.3047 
    118 H118      -79.1401   25.2552  -78.4821 H         1 UNK         0.0822 
    119 H119      -80.5856   24.1805  -80.1725 H         1 UNK         0.0807 
    120 H120      -80.1557   22.5778  -79.5734 H         1 UNK         0.0807 
    121 H121      -78.9411   23.5921  -80.3394 H         1 UNK         0.0807 
    122 H122      -81.4776   23.8777  -77.8531 H         1 UNK         0.2946 
    123 H123      -82.8168   24.8569  -76.2424 H         1 UNK         0.1144 
    124 H124      -81.4395   23.0812  -74.1316 H         1 UNK         0.0793 
    125 H125      -82.2111   22.5088  -75.6061 H         1 UNK         0.0793 
    126 H126      -83.1815   23.2394  -74.3390 H         1 UNK         0.0793 
    127 H127      -81.2266   25.8259  -73.9341 H         1 UNK         0.2896 
@<TRIPOS>BOND
     1    1    2 1    
     2    1   67 1    
     3    1   68 1    
     4    1   69 1    
     5    2    3 2    
     6    2    4 am   BACKBONE|DICT|INTERRES
     7    4    5 1    
     8    4   70 1    
     9    5    6 1    
    10    5   65 1    
    11    5   71 1    
    12    6    7 1    
    13    6   72 1    
    14    6   73 1    
    15    7    8 1    
    16    8    9 1    
    17    8   74 1    
    18    8   75 1    
    19    9   10 ar   
    20    9   14 ar   
    21   10   11 ar   
    22   10   76 1    
    23   11   12 ar   
    24   11   48 1    
    25   12   13 ar   
    26   12   77 1    
    27   13   14 ar   
    28   13   15 1    
    29   14   78 1    
    30   15   16 1    
    31   15   79 1    
    32   15   80 1    
    33   16   17 1    
    34   17   18 1    
    35   17   81 1    
    36   17   82 1    
    37   18   19 1    
    38   18   22 1    
    39   18   83 1    
    40   19   20 am   BACKBONE|DICT|INTERRES
    41   19   21 2    
    42   20   84 1    
    43   20   85 1    
    44   22   23 am   BACKBONE|DICT|INTERRES
    45   22   86 1    
    46   23   24 2    
    47   23   25 1    
    48   25   26 1    
    49   25   27 1    
    50   25   87 1    
    51   26   88 1    
    52   26   89 1    
    53   26   90 1    
    54   27   28 am   BACKBONE|DICT|INTERRES
    55   27   91 1    
    56   28   29 2    
    57   28   30 1    
    58   30   31 1    
    59   30   32 1    
    60   30   92 1    
    61   31   93 1    
    62   31   94 1    
    63   31   95 1    
    64   32   33 am   BACKBONE|DICT|INTERRES
    65   32   96 1    
    66   33   34 2    
    67   33   35 1    
    68   35   36 1    
    69   35   37 1    
    70   35   97 1    
    71   36   98 1    
    72   36   99 1    
    73   36  100 1    
    74   37   38 am   BACKBONE|DICT|INTERRES
    75   37  101 1    
    76   38   39 2    
    77   38   40 1    
    78   40   41 1    
    79   40   42 1    
    80   40  102 1    
    81   41  103 1    
    82   41  104 1    
    83   41  105 1    
    84   42   43 am   BACKBONE|DICT|INTERRES
    85   42  106 1    
    86   43   44 2    
    87   43   45 1    
    88   45   46 1    
    89   45   49 1    
    90   45  107 1    
    91   46   47 1    
    92   46  108 1    
    93   46  109 1    
    94   47   48 1    
    95   48  110 1    
    96   48  111 1    
    97   49   50 am   BACKBONE|DICT|INTERRES
    98   49  112 1    
    99   50   51 2    
   100   50   52 1    
   101   52   53 1    
   102   52   54 1    
   103   52  113 1    
   104   53  114 1    
   105   53  115 1    
   106   53  116 1    
   107   54   55 am   BACKBONE|DICT|INTERRES
   108   54  117 1    
   109   55   56 2    
   110   55   57 1    
   111   57   58 1    
   112   57   59 1    
   113   57  118 1    
   114   58  119 1    
   115   58  120 1    
   116   58  121 1    
   117   59   60 am   BACKBONE|DICT|INTERRES
   118   59  122 1    
   119   60   61 2    
   120   60   62 1    
   121   62   63 1    
   122   62   64 1    
   123   62  123 1    
   124   63  124 1    
   125   63  125 1    
   126   63  126 1    
   127   64   65 am   BACKBONE|DICT|INTERRES
   128   64  127 1    
   129   65   66 2    
@<TRIPOS>SUBSTRUCTURE
     1 UNK         1 GROUP             0       ****    0 ROOT    
