@<TRIPOS>MOLECULE
3R135
127   129    1
SMALL
USER_CHARGES


@<TRIPOS>ATOM
      1 CA        -84.2093   27.4849  -75.7926 C.3       0 UNK        -0.1998 
      2 C         -83.1922   28.4477  -75.1982 C.2       0 UNK         0.4909 
      3 O         -83.3964   29.6610  -75.2446 O.2       0 UNK        -0.5240 
      4 N         -82.0996   27.9156  -74.6424 N.am      1 UNK        -0.4739 
      5 CA        -80.9965   28.6683  -74.0514 C.3       1 UNK         0.0864 
      6 C6        -81.1918   28.8417  -72.5237 C.3       11 UNK        -0.0881 
      7 S7        -80.1430   30.1495  -71.7994 S.3       11 UNK        -0.2682 
      8 C8        -79.5436   29.3538  -70.2708 C.3       11 UNK         0.0289 
      9 C9        -78.1538   28.7593  -70.4495 C.ar      11 UNK        -0.0687 
     10 C10       -77.9700   27.6194  -71.2359 C.ar      11 UNK        -0.0823 
     11 C11       -76.6910   27.0999  -71.4464 C.ar      11 UNK        -0.0830 
     12 C12       -75.5941   27.6948  -70.8167 C.ar      11 UNK        -0.1021 
     13 C13       -75.7657   28.8212  -70.0068 C.ar      11 UNK        -0.0753 
     14 C14       -77.0474   29.3541  -69.8341 C.ar      11 UNK        -0.0933 
     15 C15       -74.5656   29.4693  -69.3281 C.3       11 UNK         0.0166 
     16 S16       -73.3585   30.1323  -70.5225 S.3       11 UNK        -0.2615 
     17 C17       -74.3763   31.3197  -71.4666 C.3       11 UNK        -0.0865 
     18 CA        -74.7924   30.7616  -72.8589 C.3       10 UNK         0.0862 
     19 C         -75.8421   31.6744  -73.5561 C.2       10 UNK         0.5551 
     20 N         -77.0454   31.7497  -73.0036 N.am      10 UNK        -0.7319 
     21 O         -75.6014   32.3008  -74.5853 O.2       10 UNK        -0.5018 
     22 N         -73.6392   30.3917  -73.6993 N.am      10 UNK        -0.4509 
     23 C         -72.6662   31.1890  -74.1628 C.2       10 UNK         0.4899 
     24 O         -72.5985   32.3967  -73.9294 O.2       10 UNK        -0.4839 
     25 CA        -71.5471   30.5348  -75.0071 C.3       9 UNK         0.0222 
     26 CB        -70.1572   30.9087  -74.4603 C.3       9 UNK        -0.1966 
     27 N         -71.6303   29.0708  -75.1044 N.am      9 UNK        -0.4218 
     28 C         -72.4853   28.3912  -75.8797 C.2       9 UNK         0.5020 
     29 O         -73.3006   28.9391  -76.6226 O.2       9 UNK        -0.5274 
     30 CA        -72.4377   26.8539  -75.7644 C.3       8 UNK         0.0270 
     31 CB        -72.6094   26.3910  -74.3062 C.3       8 UNK        -0.1976 
     32 N         -73.4642   26.2132  -76.5945 N.am      8 UNK        -0.4313 
     33 C         -73.3424   25.9959  -77.9101 C.2       8 UNK         0.5041 
     34 O         -72.3041   26.1897  -78.5473 O.2       8 UNK        -0.5577 
     35 CA        -74.6056   25.4768  -78.6182 C.3       7 UNK         0.0284 
     36 CB        -74.4806   25.4532  -80.1573 C.3       7 UNK        -0.1958 
     37 N         -75.0410   24.1754  -78.0962 N.am      7 UNK        -0.4454 
     38 C         -74.4163   22.9925  -78.2048 C.2       7 UNK         0.5089 
     39 O         -73.3229   22.8282  -78.7479 O.2       7 UNK        -0.5125 
     40 CA        -75.1785   21.7864  -77.6200 C.3       6 UNK         0.0408 
     41 CB        -74.3849   20.4631  -77.6850 C.3       6 UNK        -0.1791 
     42 N         -75.6857   22.0531  -76.2692 N.am      6 UNK        -0.4762 
     43 C         -74.9642   22.2451  -75.1512 C.2       6 UNK         0.5007 
     44 O         -73.7393   22.1266  -75.1075 O.2       6 UNK        -0.5032 
     45 CA        -75.7214   22.6795  -73.8743 C.3       5 UNK         0.0783 
     46 C46       -74.9172   23.7648  -73.1162 C.3       11 UNK        -0.0857 
     47 S47       -75.7647   24.4733  -71.6616 S.3       11 UNK        -0.2512 
     48 C48       -76.4838   25.9593  -72.4271 C.3       11 UNK         0.0225 
     49 N         -77.0735   23.1375  -74.2063 N.am      5 UNK        -0.4615 
     50 C         -78.1939   22.4268  -74.0317 C.2       4 UNK         0.5053 
     51 O         -78.2207   21.2975  -73.5427 O.2       4 UNK        -0.5105 
     52 CA        -79.5101   23.0731  -74.5011 C.3       4 UNK         0.0263 
     53 CB        -80.2850   23.6346  -73.2980 C.3       4 UNK        -0.1981 
     54 N         -79.3249   24.1325  -75.5005 N.am      4 UNK        -0.4224 
     55 C         -78.8579   23.9330  -76.7437 C.2       3 UNK         0.4895 
     56 O         -78.5173   22.8305  -77.1720 O.2       3 UNK        -0.5091 
     57 CA        -78.6940   25.1610  -77.6570 C.3       3 UNK         0.0250 
     58 CB        -79.9321   25.3246  -78.5522 C.3       3 UNK        -0.1996 
     59 N         -78.4514   26.4154  -76.9427 N.am      3 UNK        -0.4254 
     60 C         -77.4174   26.6766  -76.1310 C.2       2 UNK         0.5004 
     61 O         -76.4991   25.8841  -75.9008 O.2       2 UNK        -0.5226 
     62 CA        -77.4276   28.0553  -75.4447 C.3       2 UNK         0.0269 
     63 CB        -76.7662   29.0815  -76.3753 C.3       2 UNK        -0.1926 
     64 N         -78.7491   28.5676  -75.0443 N.am      2 UNK        -0.4687 
     65 C         -79.7180   27.8959  -74.4036 C.2       1 UNK         0.5165 
     66 O         -79.6553   26.6975  -74.1206 O.2       1 UNK        -0.5079 
     67 H67       -85.1744   27.6093  -75.3022 H         1 UNK         0.0900 
     68 H68       -84.3388   27.6852  -76.8559 H         1 UNK         0.0900 
     69 H69       -83.9028   26.4453  -75.6783 H         1 UNK         0.0900 
     70 H70       -81.9591   26.9135  -74.6476 H         1 UNK         0.2959 
     71 H71       -80.9468   29.6552  -74.5177 H         1 UNK         0.1079 
     72 H72       -81.0514   27.8928  -72.0033 H         1 UNK         0.0837 
     73 H73       -82.2241   29.1315  -72.3204 H         1 UNK         0.0837 
     74 H74       -80.2396   28.5830  -69.9374 H         1 UNK         0.0685 
     75 H75       -79.5320   30.1053  -69.4799 H         1 UNK         0.0685 
     76 H76       -78.8212   27.1572  -71.7129 H         1 UNK         0.1434 
     77 H77       -74.6011   27.2969  -70.9774 H         1 UNK         0.1329 
     78 H78       -77.1841   30.2334  -69.2194 H         1 UNK         0.1335 
     79 H79       -74.0691   28.7273  -68.7014 H         1 UNK         0.0680 
     80 H80       -74.8809   30.2726  -68.6603 H         1 UNK         0.0680 
     81 H81       -75.2525   31.5820  -70.8716 H         1 UNK         0.1032 
     82 H82       -73.8127   32.2471  -71.5775 H         1 UNK         0.1032 
     83 H83       -75.3120   29.8172  -72.6959 H         1 UNK         0.0461 
     84 H84       -77.7423   32.3363  -73.4341 H         1 UNK         0.3453 
     85 H85       -77.2824   31.2156  -72.1824 H         1 UNK         0.3453 
     86 H86       -73.6053   29.4235  -73.9751 H         1 UNK         0.2984 
     87 H87       -71.6316   30.9478  -76.0144 H         1 UNK         0.0554 
     88 H88       -70.0164   31.9904  -74.4469 H         1 UNK         0.0847 
     89 H89       -69.3605   30.4925  -75.0772 H         1 UNK         0.0847 
     90 H90       -70.0162   30.5507  -73.4396 H         1 UNK         0.0847 
     91 H91       -70.9982   28.5501  -74.5128 H         1 UNK         0.3141 
     92 H92       -71.4527   26.5312  -76.1087 H         1 UNK         0.0743 
     93 H93       -73.5666   26.7053  -73.8907 H         1 UNK         0.0784 
     94 H94       -72.5403   25.3057  -74.2351 H         1 UNK         0.0784 
     95 H95       -71.8282   26.7890  -73.6580 H         1 UNK         0.0784 
     96 H96       -74.3740   26.0640  -76.1728 H         1 UNK         0.3213 
     97 H97       -75.3991   26.1868  -78.3818 H         1 UNK         0.0855 
     98 H98       -73.6807   24.7937  -80.4949 H         1 UNK         0.0814 
     99 H99       -74.2588   26.4494  -80.5420 H         1 UNK         0.0814 
    100 H100      -75.4079   25.1241  -80.6260 H         1 UNK         0.0814 
    101 H101      -75.8919   24.1964  -77.5520 H         1 UNK         0.3105 
    102 H102      -76.0616   21.6587  -78.2480 H         1 UNK         0.0547 
    103 H103      -74.9580   19.6351  -77.2683 H         1 UNK         0.0837 
    104 H104      -73.4394   20.5234  -77.1458 H         1 UNK         0.0837 
    105 H105      -74.1480   20.2051  -78.7177 H         1 UNK         0.0837 
    106 H106      -76.6907   22.1754  -76.2097 H         1 UNK         0.3020 
    107 H107      -75.7757   21.7977  -73.2320 H         1 UNK         0.1245 
    108 H108      -74.6550   24.5670  -73.8033 H         1 UNK         0.0781 
    109 H109      -73.9688   23.3536  -72.7653 H         1 UNK         0.0781 
    110 H110      -77.4211   25.6854  -72.9128 H         1 UNK         0.0836 
    111 H111      -75.8290   26.3278  -73.2146 H         1 UNK         0.0836 
    112 H112      -77.1373   24.0511  -74.6362 H         1 UNK         0.3022 
    113 H113      -80.1138   22.2872  -74.9598 H         1 UNK         0.0747 
    114 H114      -81.2308   24.0812  -73.6050 H         1 UNK         0.0793 
    115 H115      -80.5165   22.8454  -72.5815 H         1 UNK         0.0793 
    116 H116      -79.7108   24.3949  -72.7672 H         1 UNK         0.0793 
    117 H117      -79.5262   25.0800  -75.1919 H         1 UNK         0.3047 
    118 H118      -77.8334   24.9774  -78.3023 H         1 UNK         0.0822 
    119 H119      -79.7969   26.1295  -79.2749 H         1 UNK         0.0807 
    120 H120      -80.8275   25.5427  -77.9685 H         1 UNK         0.0807 
    121 H121      -80.1273   24.4133  -79.1197 H         1 UNK         0.0807 
    122 H122      -79.1466   27.1385  -77.0569 H         1 UNK         0.2946 
    123 H123      -76.8245   27.9739  -74.5403 H         1 UNK         0.1144 
    124 H124      -76.5658   30.0201  -75.8616 H         1 UNK         0.0793 
    125 H125      -77.3892   29.3021  -77.2428 H         1 UNK         0.0793 
    126 H126      -75.8140   28.7118  -76.7534 H         1 UNK         0.0793 
    127 H127      -78.9066   29.5471  -75.2346 H         1 UNK         0.2896 
@<TRIPOS>BOND
     1    1    2 1    
     2    1   67 1    
     3    1   68 1    
     4    1   69 1    
     5    2    3 2    
     6    2    4 am   BACKBONE|DICT|INTERRES
     7    4    5 1    
     8    4   70 1    
     9    5    6 1    
    10    5   65 1    
    11    5   71 1    
    12    6    7 1    
    13    6   72 1    
    14    6   73 1    
    15    7    8 1    
    16    8    9 1    
    17    8   74 1    
    18    8   75 1    
    19    9   10 ar   
    20    9   14 ar   
    21   10   11 ar   
    22   10   76 1    
    23   11   12 ar   
    24   11   48 1    
    25   12   13 ar   
    26   12   77 1    
    27   13   14 ar   
    28   13   15 1    
    29   14   78 1    
    30   15   16 1    
    31   15   79 1    
    32   15   80 1    
    33   16   17 1    
    34   17   18 1    
    35   17   81 1    
    36   17   82 1    
    37   18   19 1    
    38   18   22 1    
    39   18   83 1    
    40   19   20 am   BACKBONE|DICT|INTERRES
    41   19   21 2    
    42   20   84 1    
    43   20   85 1    
    44   22   23 am   BACKBONE|DICT|INTERRES
    45   22   86 1    
    46   23   24 2    
    47   23   25 1    
    48   25   26 1    
    49   25   27 1    
    50   25   87 1    
    51   26   88 1    
    52   26   89 1    
    53   26   90 1    
    54   27   28 am   BACKBONE|DICT|INTERRES
    55   27   91 1    
    56   28   29 2    
    57   28   30 1    
    58   30   31 1    
    59   30   32 1    
    60   30   92 1    
    61   31   93 1    
    62   31   94 1    
    63   31   95 1    
    64   32   33 am   BACKBONE|DICT|INTERRES
    65   32   96 1    
    66   33   34 2    
    67   33   35 1    
    68   35   36 1    
    69   35   37 1    
    70   35   97 1    
    71   36   98 1    
    72   36   99 1    
    73   36  100 1    
    74   37   38 am   BACKBONE|DICT|INTERRES
    75   37  101 1    
    76   38   39 2    
    77   38   40 1    
    78   40   41 1    
    79   40   42 1    
    80   40  102 1    
    81   41  103 1    
    82   41  104 1    
    83   41  105 1    
    84   42   43 am   BACKBONE|DICT|INTERRES
    85   42  106 1    
    86   43   44 2    
    87   43   45 1    
    88   45   46 1    
    89   45   49 1    
    90   45  107 1    
    91   46   47 1    
    92   46  108 1    
    93   46  109 1    
    94   47   48 1    
    95   48  110 1    
    96   48  111 1    
    97   49   50 am   BACKBONE|DICT|INTERRES
    98   49  112 1    
    99   50   51 2    
   100   50   52 1    
   101   52   53 1    
   102   52   54 1    
   103   52  113 1    
   104   53  114 1    
   105   53  115 1    
   106   53  116 1    
   107   54   55 am   BACKBONE|DICT|INTERRES
   108   54  117 1    
   109   55   56 2    
   110   55   57 1    
   111   57   58 1    
   112   57   59 1    
   113   57  118 1    
   114   58  119 1    
   115   58  120 1    
   116   58  121 1    
   117   59   60 am   BACKBONE|DICT|INTERRES
   118   59  122 1    
   119   60   61 2    
   120   60   62 1    
   121   62   63 1    
   122   62   64 1    
   123   62  123 1    
   124   63  124 1    
   125   63  125 1    
   126   63  126 1    
   127   64   65 am   BACKBONE|DICT|INTERRES
   128   64  127 1    
   129   65   66 2    
@<TRIPOS>SUBSTRUCTURE
     1 UNK         1 GROUP             0       ****    0 ROOT    
