@<TRIPOS>MOLECULE
3R135
127   129    1
SMALL
USER_CHARGES


@<TRIPOS>ATOM
      1 CA        -83.7713   26.0929  -75.9719 C.3       0 UNK        -0.1998 
      2 C         -82.7276   27.0616  -75.4384 C.2       0 UNK         0.4909 
      3 O         -82.0620   27.7411  -76.2206 O.2       0 UNK        -0.5240 
      4 N         -82.5642   27.1263  -74.1108 N.am      1 UNK        -0.4739 
      5 CA        -81.5432   27.9373  -73.4396 C.3       1 UNK         0.0864 
      6 C6        -81.7857   27.9902  -71.9120 C.3       11 UNK        -0.0881 
      7 S7        -81.1305   29.5165  -71.1604 S.3       11 UNK        -0.2682 
      8 C8        -80.0499   28.8594  -69.8527 C.3       11 UNK         0.0289 
      9 C9        -78.6915   28.4422  -70.3940 C.ar      11 UNK        -0.0687 
     10 C10       -78.4331   27.1078  -70.7211 C.ar      11 UNK        -0.0823 
     11 C11       -77.1732   26.7196  -71.1883 C.ar      11 UNK        -0.0830 
     12 C12       -76.1663   27.6823  -71.3177 C.ar      11 UNK        -0.1021 
     13 C13       -76.4141   29.0217  -71.0011 C.ar      11 UNK        -0.0753 
     14 C14       -77.6787   29.3939  -70.5383 C.ar      11 UNK        -0.0933 
     15 C15       -75.3149   30.0654  -71.1288 C.3       11 UNK         0.0166 
     16 S16       -75.6208   31.1840  -72.5299 S.3       11 UNK        -0.2615 
     17 C17       -74.1633   32.2810  -72.4358 C.3       11 UNK        -0.0865 
     18 CA        -73.2092   32.1128  -73.6540 C.3       10 UNK         0.0862 
     19 C         -72.0827   33.1917  -73.6967 C.2       10 UNK         0.5551 
     20 N         -70.8923   32.8845  -74.1998 N.am      10 UNK        -0.7319 
     21 O         -72.2971   34.3347  -73.2996 O.2       10 UNK        -0.5018 
     22 N         -72.7379   30.7282  -73.8329 N.am      10 UNK        -0.4509 
     23 C         -71.9581   30.0359  -72.9906 C.2       10 UNK         0.4899 
     24 O         -71.5516   30.4668  -71.9114 O.2       10 UNK        -0.4839 
     25 CA        -71.5568   28.6156  -73.4240 C.3       9 UNK         0.0222 
     26 CB        -72.4259   27.5664  -72.7140 C.3       9 UNK        -0.1966 
     27 N         -71.6534   28.3970  -74.8676 N.am      9 UNK        -0.4218 
     28 C         -70.8484   28.9120  -75.8036 C.2       9 UNK         0.5020 
     29 O         -69.9125   29.6723  -75.5481 O.2       9 UNK        -0.5274 
     30 CA        -71.1485   28.5044  -77.2644 C.3       8 UNK         0.0270 
     31 CB        -70.0163   28.8999  -78.2314 C.3       8 UNK        -0.1976 
     32 N         -71.4275   27.0692  -77.4182 N.am      8 UNK        -0.4313 
     33 C         -72.5574   26.4504  -77.0529 C.2       8 UNK         0.5041 
     34 O         -73.5097   27.0291  -76.5221 O.2       8 UNK        -0.5577 
     35 CA        -72.6046   24.9332  -77.2443 C.3       7 UNK         0.0284 
     36 CB        -71.8807   24.2133  -76.0922 C.3       7 UNK        -0.1958 
     37 N         -74.0009   24.5126  -77.2747 N.am      7 UNK        -0.4454 
     38 C         -74.4839   23.4928  -77.9898 C.2       7 UNK         0.5089 
     39 O         -73.7891   22.7625  -78.6997 O.2       7 UNK        -0.5125 
     40 CA        -76.0004   23.2590  -77.8797 C.3       6 UNK         0.0408 
     41 CB        -76.4868   22.0227  -78.6652 C.3       6 UNK        -0.1791 
     42 N         -76.4594   23.2102  -76.4872 N.am      6 UNK        -0.4762 
     43 C         -76.1198   22.3176  -75.5428 C.2       6 UNK         0.5007 
     44 O         -75.3063   21.4091  -75.7153 O.2       6 UNK        -0.5032 
     45 CA        -76.8460   22.4173  -74.1843 C.3       5 UNK         0.0783 
     46 C46       -76.0020   23.1490  -73.1071 C.3       11 UNK        -0.0857 
     47 S47       -76.1294   24.9719  -73.1219 S.3       11 UNK        -0.2512 
     48 C48       -76.8952   25.2510  -71.4899 C.3       11 UNK         0.0225 
     49 N         -78.2037   22.9570  -74.3320 N.am      5 UNK        -0.4615 
     50 C         -79.2495   22.2445  -74.7757 C.2       4 UNK         0.5053 
     51 O         -79.2202   21.0284  -74.9652 O.2       4 UNK        -0.5105 
     52 CA        -80.5328   23.0249  -75.0987 C.3       4 UNK         0.0263 
     53 CB        -81.3333   23.3301  -73.8221 C.3       4 UNK        -0.1981 
     54 N         -80.2312   24.2612  -75.8269 N.am      4 UNK        -0.4224 
     55 C         -79.9043   24.2902  -77.1309 C.2       3 UNK         0.4895 
     56 O         -79.9140   23.2920  -77.8511 O.2       3 UNK        -0.5091 
     57 CA        -79.4943   25.6357  -77.7591 C.3       3 UNK         0.0250 
     58 CB        -80.5622   26.1238  -78.7520 C.3       3 UNK        -0.1996 
     59 N         -79.2242   26.6803  -76.7688 N.am      3 UNK        -0.4254 
     60 C         -78.0848   26.7653  -76.0643 C.2       2 UNK         0.5004 
     61 O         -77.1340   26.0033  -76.2321 O.2       2 UNK        -0.5226 
     62 CA        -78.0006   27.8452  -74.9666 C.3       2 UNK         0.0269 
     63 CB        -77.2645   29.0864  -75.4920 C.3       2 UNK        -0.1926 
     64 N         -79.3057   28.2416  -74.4239 N.am      2 UNK        -0.4687 
     65 C         -80.1422   27.4023  -73.7984 C.2       1 UNK         0.5165 
     66 O         -79.8762   26.2183  -73.5800 O.2       1 UNK        -0.5079 
     67 H67       -84.3498   25.6351  -75.1697 H         1 UNK         0.0900 
     68 H68       -84.4627   26.6133  -76.6340 H         1 UNK         0.0900 
     69 H69       -83.2880   25.2976  -76.5388 H         1 UNK         0.0900 
     70 H70       -83.1182   26.5314  -73.5117 H         1 UNK         0.2959 
     71 H71       -81.6425   28.9496  -73.8388 H         1 UNK         0.1079 
     72 H72       -81.3956   27.1019  -71.4120 H         1 UNK         0.0837 
     73 H73       -82.8573   27.9913  -71.7052 H         1 UNK         0.0837 
     74 H74       -80.5397   28.0265  -69.3458 H         1 UNK         0.0685 
     75 H75       -79.9147   29.6323  -69.0945 H         1 UNK         0.0685 
     76 H76       -79.2131   26.3681  -70.6045 H         1 UNK         0.1434 
     77 H77       -75.1870   27.3808  -71.6565 H         1 UNK         0.1329 
     78 H78       -77.8730   30.4278  -70.2869 H         1 UNK         0.1335 
     79 H79       -75.2584   30.6465  -70.2071 H         1 UNK         0.0680 
     80 H80       -74.3437   29.5856  -71.2533 H         1 UNK         0.0680 
     81 H81       -73.6264   32.1190  -71.4999 H         1 UNK         0.1032 
     82 H82       -74.5387   33.3046  -72.3872 H         1 UNK         0.1032 
     83 H83       -73.8025   32.3199  -74.5454 H         1 UNK         0.0461 
     84 H84       -70.1736   33.5900  -74.2345 H         1 UNK         0.3453 
     85 H85       -70.7012   31.9509  -74.5323 H         1 UNK         0.3453 
     86 H86       -73.0197   30.2803  -74.6918 H         1 UNK         0.2984 
     87 H87       -70.5180   28.4634  -73.1240 H         1 UNK         0.0554 
     88 H88       -72.4334   27.7206  -71.6340 H         1 UNK         0.0847 
     89 H89       -72.0552   26.5572  -72.8944 H         1 UNK         0.0847 
     90 H90       -73.4575   27.6080  -73.0639 H         1 UNK         0.0847 
     91 H91       -72.4232   27.8197  -75.2009 H         1 UNK         0.3141 
     92 H92       -72.0423   29.0566  -77.5628 H         1 UNK         0.0743 
     93 H93       -69.0791   28.4015  -77.9805 H         1 UNK         0.0784 
     94 H94       -70.2670   28.6473  -79.2619 H         1 UNK         0.0784 
     95 H95       -69.8323   29.9749  -78.2021 H         1 UNK         0.0784 
     96 H96       -70.6764   26.5111  -77.7997 H         1 UNK         0.3213 
     97 H97       -72.1224   24.6914  -78.1942 H         1 UNK         0.0855 
     98 H98       -72.3338   24.4447  -75.1269 H         1 UNK         0.0814 
     99 H99       -70.8311   24.5049  -76.0400 H         1 UNK         0.0814 
    100 H100      -71.9096   23.1312  -76.2221 H         1 UNK         0.0814 
    101 H101      -74.6380   25.1146  -76.7628 H         1 UNK         0.3105 
    102 H102      -76.4753   24.1338  -78.3252 H         1 UNK         0.0547 
    103 H103      -77.5673   21.9033  -78.5859 H         1 UNK         0.0837 
    104 H104      -76.0208   21.1037  -78.3088 H         1 UNK         0.0837 
    105 H105      -76.2485   22.1166  -79.7251 H         1 UNK         0.0837 
    106 H106      -77.0348   23.9979  -76.2067 H         1 UNK         0.3020 
    107 H107      -76.9424   21.3837  -73.8420 H         1 UNK         0.1245 
    108 H108      -74.9471   22.8783  -73.1866 H         1 UNK         0.0781 
    109 H109      -76.3079   22.7858  -72.1250 H         1 UNK         0.0781 
    110 H110      -76.2383   24.8559  -70.7138 H         1 UNK         0.0836 
    111 H111      -77.8196   24.6728  -71.4417 H         1 UNK         0.0836 
    112 H112      -78.3075   23.9507  -74.1781 H         1 UNK         0.3022 
    113 H113      -81.1581   22.3953  -75.7359 H         1 UNK         0.0747 
    114 H114      -82.2163   23.9309  -74.0386 H         1 UNK         0.0793 
    115 H115      -81.6762   22.4064  -73.3545 H         1 UNK         0.0793 
    116 H116      -80.7376   23.8608  -73.0795 H         1 UNK         0.0793 
    117 H117      -80.1679   25.1088  -75.2731 H         1 UNK         0.3047 
    118 H118      -78.5786   25.4579  -78.3268 H         1 UNK         0.0822 
    119 H119      -80.2874   27.0811  -79.1951 H         1 UNK         0.0807 
    120 H120      -81.5375   26.2383  -78.2806 H         1 UNK         0.0807 
    121 H121      -80.6836   25.4125  -79.5700 H         1 UNK         0.0807 
    122 H122      -79.9857   27.3180  -76.5614 H         1 UNK         0.2946 
    123 H123      -77.4177   27.4264  -74.1438 H         1 UNK         0.1144 
    124 H124      -77.1430   29.8344  -74.7093 H         1 UNK         0.0793 
    125 H125      -77.7954   29.5508  -76.3237 H         1 UNK         0.0793 
    126 H126      -76.2656   28.8237  -75.8448 H         1 UNK         0.0793 
    127 H127      -79.5948   29.1953  -74.5874 H         1 UNK         0.2896 
@<TRIPOS>BOND
     1    1    2 1    
     2    1   67 1    
     3    1   68 1    
     4    1   69 1    
     5    2    3 2    
     6    2    4 am   BACKBONE|DICT|INTERRES
     7    4    5 1    
     8    4   70 1    
     9    5    6 1    
    10    5   65 1    
    11    5   71 1    
    12    6    7 1    
    13    6   72 1    
    14    6   73 1    
    15    7    8 1    
    16    8    9 1    
    17    8   74 1    
    18    8   75 1    
    19    9   10 ar   
    20    9   14 ar   
    21   10   11 ar   
    22   10   76 1    
    23   11   12 ar   
    24   11   48 1    
    25   12   13 ar   
    26   12   77 1    
    27   13   14 ar   
    28   13   15 1    
    29   14   78 1    
    30   15   16 1    
    31   15   79 1    
    32   15   80 1    
    33   16   17 1    
    34   17   18 1    
    35   17   81 1    
    36   17   82 1    
    37   18   19 1    
    38   18   22 1    
    39   18   83 1    
    40   19   20 am   BACKBONE|DICT|INTERRES
    41   19   21 2    
    42   20   84 1    
    43   20   85 1    
    44   22   23 am   BACKBONE|DICT|INTERRES
    45   22   86 1    
    46   23   24 2    
    47   23   25 1    
    48   25   26 1    
    49   25   27 1    
    50   25   87 1    
    51   26   88 1    
    52   26   89 1    
    53   26   90 1    
    54   27   28 am   BACKBONE|DICT|INTERRES
    55   27   91 1    
    56   28   29 2    
    57   28   30 1    
    58   30   31 1    
    59   30   32 1    
    60   30   92 1    
    61   31   93 1    
    62   31   94 1    
    63   31   95 1    
    64   32   33 am   BACKBONE|DICT|INTERRES
    65   32   96 1    
    66   33   34 2    
    67   33   35 1    
    68   35   36 1    
    69   35   37 1    
    70   35   97 1    
    71   36   98 1    
    72   36   99 1    
    73   36  100 1    
    74   37   38 am   BACKBONE|DICT|INTERRES
    75   37  101 1    
    76   38   39 2    
    77   38   40 1    
    78   40   41 1    
    79   40   42 1    
    80   40  102 1    
    81   41  103 1    
    82   41  104 1    
    83   41  105 1    
    84   42   43 am   BACKBONE|DICT|INTERRES
    85   42  106 1    
    86   43   44 2    
    87   43   45 1    
    88   45   46 1    
    89   45   49 1    
    90   45  107 1    
    91   46   47 1    
    92   46  108 1    
    93   46  109 1    
    94   47   48 1    
    95   48  110 1    
    96   48  111 1    
    97   49   50 am   BACKBONE|DICT|INTERRES
    98   49  112 1    
    99   50   51 2    
   100   50   52 1    
   101   52   53 1    
   102   52   54 1    
   103   52  113 1    
   104   53  114 1    
   105   53  115 1    
   106   53  116 1    
   107   54   55 am   BACKBONE|DICT|INTERRES
   108   54  117 1    
   109   55   56 2    
   110   55   57 1    
   111   57   58 1    
   112   57   59 1    
   113   57  118 1    
   114   58  119 1    
   115   58  120 1    
   116   58  121 1    
   117   59   60 am   BACKBONE|DICT|INTERRES
   118   59  122 1    
   119   60   61 2    
   120   60   62 1    
   121   62   63 1    
   122   62   64 1    
   123   62  123 1    
   124   63  124 1    
   125   63  125 1    
   126   63  126 1    
   127   64   65 am   BACKBONE|DICT|INTERRES
   128   64  127 1    
   129   65   66 2    
@<TRIPOS>SUBSTRUCTURE
     1 UNK         1 GROUP             0       ****    0 ROOT    
