@<TRIPOS>MOLECULE
3R135
127   129    1
SMALL
USER_CHARGES


@<TRIPOS>ATOM
      1 CA        -76.3045   24.3734  -70.1970 C.3       0 UNK        -0.1998 
      2 C         -77.7956   24.6492  -70.0789 C.2       0 UNK         0.4909 
      3 O         -78.4919   23.9505  -69.3421 O.2       0 UNK        -0.5240 
      4 N         -78.2892   25.6664  -70.7965 N.am      1 UNK        -0.4739 
      5 CA        -79.6954   26.0949  -70.7879 C.3       1 UNK         0.0864 
      6 C6        -79.8521   27.5410  -71.3156 C.3       11 UNK        -0.0881 
      7 S7        -78.9866   28.7527  -70.2619 S.3       11 UNK        -0.2682 
      8 C8        -79.6288   30.3208  -70.9265 C.3       11 UNK         0.0289 
      9 C9        -79.0755   30.6028  -72.3147 C.ar      11 UNK        -0.0687 
     10 C10       -79.8124   30.2663  -73.4520 C.ar      11 UNK        -0.0823 
     11 C11       -79.2906   30.4949  -74.7283 C.ar      11 UNK        -0.0830 
     12 C12       -78.0299   31.0869  -74.8610 C.ar      11 UNK        -0.1021 
     13 C13       -77.2730   31.4193  -73.7279 C.ar      11 UNK        -0.0753 
     14 C14       -77.8143   31.1840  -72.4603 C.ar      11 UNK        -0.0933 
     15 C15       -75.8700   32.0216  -73.8108 C.3       11 UNK         0.0166 
     16 S16       -74.9812   31.7013  -75.3721 S.3       11 UNK        -0.2615 
     17 C17       -73.2411   31.7565  -74.8180 C.3       11 UNK        -0.0865 
     18 CA        -72.5523   30.3625  -74.9159 C.3       10 UNK         0.0862 
     19 C         -71.0140   30.3833  -74.6479 C.2       10 UNK         0.5551 
     20 N         -70.3197   31.4698  -74.9629 N.am      10 UNK        -0.7319 
     21 O         -70.4231   29.4004  -74.2041 O.2       10 UNK        -0.5018 
     22 N         -73.2729   29.3187  -74.1656 N.am      10 UNK        -0.4509 
     23 C         -73.3428   29.1987  -72.8329 C.2       10 UNK         0.4899 
     24 O         -72.8202   29.9856  -72.0426 O.2       10 UNK        -0.4839 
     25 CA        -74.1364   28.0075  -72.2718 C.3       9 UNK         0.0222 
     26 CB        -75.5862   28.4290  -71.9788 C.3       9 UNK        -0.1966 
     27 N         -74.1453   26.8613  -73.1873 N.am      9 UNK        -0.4218 
     28 C         -73.6000   25.6648  -72.9323 C.2       9 UNK         0.5020 
     29 O         -73.0110   25.3864  -71.8869 O.2       9 UNK        -0.5274 
     30 CA        -73.7592   24.5730  -74.0057 C.3       8 UNK         0.0270 
     31 CB        -75.1294   23.8849  -73.8837 C.3       8 UNK        -0.1976 
     32 N         -73.5732   25.0475  -75.3789 N.am      8 UNK        -0.4313 
     33 C         -72.3917   25.4004  -75.9069 C.2       8 UNK         0.5041 
     34 O         -71.3391   25.4346  -75.2692 O.2       8 UNK        -0.5577 
     35 CA        -72.3719   25.7541  -77.4020 C.3       7 UNK         0.0284 
     36 CB        -72.3930   24.4790  -78.2624 C.3       7 UNK        -0.1958 
     37 N         -73.5141   26.5978  -77.7502 N.am      7 UNK        -0.4454 
     38 C         -73.4493   27.9205  -77.9494 C.2       7 UNK         0.5089 
     39 O         -72.3928   28.5497  -78.0034 O.2       7 UNK        -0.5125 
     40 CA        -74.7776   28.6874  -78.1148 C.3       6 UNK         0.0408 
     41 CB        -74.9942   29.0751  -79.5857 C.3       6 UNK        -0.1791 
     42 N         -75.9603   27.9677  -77.6343 N.am      6 UNK        -0.4762 
     43 C         -76.2004   27.6160  -76.3624 C.2       6 UNK         0.5007 
     44 O         -75.4371   27.8650  -75.4311 O.2       6 UNK        -0.5032 
     45 CA        -77.4460   26.7375  -76.1075 C.3       5 UNK         0.0783 
     46 C46       -78.6982   27.5533  -75.7027 C.3       11 UNK        -0.0857 
     47 S47       -79.2321   28.7833  -76.9515 S.3       11 UNK        -0.2512 
     48 C48       -80.0808   30.0608  -75.9573 C.3       11 UNK         0.0225 
     49 N         -77.7226   25.7934  -77.1962 N.am      5 UNK        -0.4615 
     50 C         -76.8665   24.8629  -77.6366 C.2       4 UNK         0.5053 
     51 O         -75.7136   24.7455  -77.2148 O.2       4 UNK        -0.5105 
     52 CA        -77.3988   23.8843  -78.6941 C.3       4 UNK         0.0263 
     53 CB        -76.2643   23.2609  -79.5281 C.3       4 UNK        -0.1981 
     54 N         -78.1491   22.8192  -78.0324 N.am      4 UNK        -0.4224 
     55 C         -79.3847   22.9494  -77.5320 C.2       3 UNK         0.4895 
     56 O         -80.0867   23.9488  -77.7058 O.2       3 UNK        -0.5091 
     57 CA        -79.9388   21.7820  -76.6909 C.3       3 UNK         0.0250 
     58 CB        -78.9212   20.6483  -76.4202 C.3       3 UNK        -0.1996 
     59 N         -80.5254   22.2554  -75.4307 N.am      3 UNK        -0.4254 
     60 C         -79.9066   22.9425  -74.4582 C.2       2 UNK         0.5004 
     61 O         -78.7159   23.2704  -74.4776 O.2       2 UNK        -0.5226 
     62 CA        -80.7687   23.3001  -73.2414 C.3       2 UNK         0.0269 
     63 CB        -81.0718   22.0512  -72.3898 C.3       2 UNK        -0.1926 
     64 N         -80.0624   24.2887  -72.4317 N.am      2 UNK        -0.4687 
     65 C         -80.6257   25.1322  -71.5588 C.2       1 UNK         0.5165 
     66 O         -81.8389   25.1736  -71.3474 O.2       1 UNK        -0.5079 
     67 H67       -76.1377   23.3596  -70.5593 H         1 UNK         0.0900 
     68 H68       -75.8138   25.0656  -70.8803 H         1 UNK         0.0900 
     69 H69       -75.8276   24.4687  -69.2220 H         1 UNK         0.0900 
     70 H70       -77.6704   26.2223  -71.3671 H         1 UNK         0.2959 
     71 H71       -80.0411   26.0794  -69.7515 H         1 UNK         0.1079 
     72 H72       -80.9064   27.8233  -71.3545 H         1 UNK         0.0837 
     73 H73       -79.4713   27.6201  -72.3354 H         1 UNK         0.0837 
     74 H74       -79.3505   31.1303  -70.2501 H         1 UNK         0.0685 
     75 H75       -80.7196   30.2973  -70.9404 H         1 UNK         0.0685 
     76 H76       -80.7838   29.8044  -73.3407 H         1 UNK         0.1434 
     77 H77       -77.6355   31.2557  -75.8529 H         1 UNK         0.1329 
     78 H78       -77.2421   31.4340  -71.5771 H         1 UNK         0.1335 
     79 H79       -75.9343   33.0993  -73.6563 H         1 UNK         0.0680 
     80 H80       -75.2757   31.6227  -72.9873 H         1 UNK         0.0680 
     81 H81       -73.1694   32.1517  -73.8035 H         1 UNK         0.1032 
     82 H82       -72.7390   32.4822  -75.4585 H         1 UNK         0.1032 
     83 H83       -72.6310   30.0538  -75.9554 H         1 UNK         0.0461 
     84 H84       -69.3237   31.4708  -74.8069 H         1 UNK         0.3453 
     85 H85       -70.7620   32.2831  -75.3591 H         1 UNK         0.3453 
     86 H86       -73.8142   28.6761  -74.7315 H         1 UNK         0.2984 
     87 H87       -73.6702   27.7329  -71.3235 H         1 UNK         0.0554 
     88 H88       -75.6161   29.2943  -71.3154 H         1 UNK         0.0847 
     89 H89       -76.1388   27.6311  -71.4862 H         1 UNK         0.0847 
     90 H90       -76.1234   28.6995  -72.8890 H         1 UNK         0.0847 
     91 H91       -74.6019   27.0170  -74.0836 H         1 UNK         0.3141 
     92 H92       -72.9936   23.8173  -73.8166 H         1 UNK         0.0743 
     93 H93       -75.2494   23.0980  -74.6289 H         1 UNK         0.0784 
     94 H94       -75.2440   23.4190  -72.9049 H         1 UNK         0.0784 
     95 H95       -75.9532   24.5868  -74.0081 H         1 UNK         0.0784 
     96 H96       -74.3804   24.9839  -75.9963 H         1 UNK         0.3213 
     97 H97       -71.4352   26.2777  -77.6058 H         1 UNK         0.0855 
     98 H98       -73.2966   23.8902  -78.1015 H         1 UNK         0.0814 
     99 H99       -71.5414   23.8386  -78.0287 H         1 UNK         0.0814 
    100 H100      -72.3361   24.7187  -79.3242 H         1 UNK         0.0814 
    101 H101      -74.4262   26.1551  -77.7164 H         1 UNK         0.3105 
    102 H102      -74.6929   29.6051  -77.5305 H         1 UNK         0.0547 
    103 H103      -75.1070   28.1970  -80.2227 H         1 UNK         0.0837 
    104 H104      -74.1475   29.6476  -79.9674 H         1 UNK         0.0837 
    105 H105      -75.8817   29.6966  -79.7062 H         1 UNK         0.0837 
    106 H106      -76.6471   27.7073  -78.3276 H         1 UNK         0.3020 
    107 H107      -77.1953   26.1166  -75.2457 H         1 UNK         0.1245 
    108 H108      -78.4927   28.0453  -74.7525 H         1 UNK         0.0781 
    109 H109      -79.5344   26.8806  -75.5050 H         1 UNK         0.0781 
    110 H110      -80.2669   30.9317  -76.5872 H         1 UNK         0.0836 
    111 H111      -81.0616   29.6783  -75.6709 H         1 UNK         0.0836 
    112 H112      -78.6695   25.7829  -77.5537 H         1 UNK         0.3022 
    113 H113      -78.0588   24.4299  -79.3722 H         1 UNK         0.0747 
    114 H114      -75.5855   22.6668  -78.9146 H         1 UNK         0.0793 
    115 H115      -76.6590   22.6140  -80.3117 H         1 UNK         0.0793 
    116 H116      -75.6690   24.0342  -80.0155 H         1 UNK         0.0793 
    117 H117      -77.6347   21.9787  -77.8125 H         1 UNK         0.3047 
    118 H118      -80.7587   21.3574  -77.2721 H         1 UNK         0.0822 
    119 H119      -79.3740   19.8530  -75.8279 H         1 UNK         0.0807 
    120 H120      -78.0452   21.0021  -75.8747 H         1 UNK         0.0807 
    121 H121      -78.5776   20.1902  -77.3486 H         1 UNK         0.0807 
    122 H122      -81.5116   22.0645  -75.3209 H         1 UNK         0.2946 
    123 H123      -81.7025   23.7365  -73.6039 H         1 UNK         0.1144 
    124 H124      -81.7033   22.2947  -71.5352 H         1 UNK         0.0793 
    125 H125      -80.1568   21.5960  -72.0085 H         1 UNK         0.0793 
    126 H126      -81.5980   21.2919  -72.9694 H         1 UNK         0.0793 
    127 H127      -79.0645   24.3283  -72.5975 H         1 UNK         0.2896 
@<TRIPOS>BOND
     1    1    2 1    
     2    1   67 1    
     3    1   68 1    
     4    1   69 1    
     5    2    3 2    
     6    2    4 am   BACKBONE|DICT|INTERRES
     7    4    5 1    
     8    4   70 1    
     9    5    6 1    
    10    5   65 1    
    11    5   71 1    
    12    6    7 1    
    13    6   72 1    
    14    6   73 1    
    15    7    8 1    
    16    8    9 1    
    17    8   74 1    
    18    8   75 1    
    19    9   10 ar   
    20    9   14 ar   
    21   10   11 ar   
    22   10   76 1    
    23   11   12 ar   
    24   11   48 1    
    25   12   13 ar   
    26   12   77 1    
    27   13   14 ar   
    28   13   15 1    
    29   14   78 1    
    30   15   16 1    
    31   15   79 1    
    32   15   80 1    
    33   16   17 1    
    34   17   18 1    
    35   17   81 1    
    36   17   82 1    
    37   18   19 1    
    38   18   22 1    
    39   18   83 1    
    40   19   20 am   BACKBONE|DICT|INTERRES
    41   19   21 2    
    42   20   84 1    
    43   20   85 1    
    44   22   23 am   BACKBONE|DICT|INTERRES
    45   22   86 1    
    46   23   24 2    
    47   23   25 1    
    48   25   26 1    
    49   25   27 1    
    50   25   87 1    
    51   26   88 1    
    52   26   89 1    
    53   26   90 1    
    54   27   28 am   BACKBONE|DICT|INTERRES
    55   27   91 1    
    56   28   29 2    
    57   28   30 1    
    58   30   31 1    
    59   30   32 1    
    60   30   92 1    
    61   31   93 1    
    62   31   94 1    
    63   31   95 1    
    64   32   33 am   BACKBONE|DICT|INTERRES
    65   32   96 1    
    66   33   34 2    
    67   33   35 1    
    68   35   36 1    
    69   35   37 1    
    70   35   97 1    
    71   36   98 1    
    72   36   99 1    
    73   36  100 1    
    74   37   38 am   BACKBONE|DICT|INTERRES
    75   37  101 1    
    76   38   39 2    
    77   38   40 1    
    78   40   41 1    
    79   40   42 1    
    80   40  102 1    
    81   41  103 1    
    82   41  104 1    
    83   41  105 1    
    84   42   43 am   BACKBONE|DICT|INTERRES
    85   42  106 1    
    86   43   44 2    
    87   43   45 1    
    88   45   46 1    
    89   45   49 1    
    90   45  107 1    
    91   46   47 1    
    92   46  108 1    
    93   46  109 1    
    94   47   48 1    
    95   48  110 1    
    96   48  111 1    
    97   49   50 am   BACKBONE|DICT|INTERRES
    98   49  112 1    
    99   50   51 2    
   100   50   52 1    
   101   52   53 1    
   102   52   54 1    
   103   52  113 1    
   104   53  114 1    
   105   53  115 1    
   106   53  116 1    
   107   54   55 am   BACKBONE|DICT|INTERRES
   108   54  117 1    
   109   55   56 2    
   110   55   57 1    
   111   57   58 1    
   112   57   59 1    
   113   57  118 1    
   114   58  119 1    
   115   58  120 1    
   116   58  121 1    
   117   59   60 am   BACKBONE|DICT|INTERRES
   118   59  122 1    
   119   60   61 2    
   120   60   62 1    
   121   62   63 1    
   122   62   64 1    
   123   62  123 1    
   124   63  124 1    
   125   63  125 1    
   126   63  126 1    
   127   64   65 am   BACKBONE|DICT|INTERRES
   128   64  127 1    
   129   65   66 2    
@<TRIPOS>SUBSTRUCTURE
     1 UNK         1 GROUP             0       ****    0 ROOT    
