@<TRIPOS>MOLECULE
3R135
127   129    1
SMALL
USER_CHARGES


@<TRIPOS>ATOM
      1 CA        -84.1852   24.2351  -73.9103 C.3       0 UNK        -0.1998 
      2 C         -82.9397   25.0743  -73.6722 C.2       0 UNK         0.4909 
      3 O         -81.8320   24.6018  -73.9290 O.2       0 UNK        -0.5240 
      4 N         -83.1128   26.3151  -73.1913 N.am      1 UNK        -0.4739 
      5 CA        -82.0488   27.2904  -72.9077 C.3       1 UNK         0.0864 
      6 C6        -81.1909   26.8766  -71.6677 C.3       11 UNK        -0.0881 
      7 S7        -80.9104   28.2243  -70.4654 S.3       11 UNK        -0.2682 
      8 C8        -79.7703   29.3797  -71.3096 C.3       11 UNK         0.0289 
      9 C9        -78.3839   28.8402  -71.6696 C.ar      11 UNK        -0.0687 
     10 C10       -77.8500   27.6702  -71.1130 C.ar      11 UNK        -0.0823 
     11 C11       -76.5930   27.2022  -71.5077 C.ar      11 UNK        -0.0830 
     12 C12       -75.8482   27.9255  -72.4428 C.ar      11 UNK        -0.1021 
     13 C13       -76.3591   29.1017  -72.9947 C.ar      11 UNK        -0.0753 
     14 C14       -77.6218   29.5537  -72.6014 C.ar      11 UNK        -0.0933 
     15 C15       -75.5578   29.8712  -74.0316 C.3       11 UNK         0.0166 
     16 S16       -74.7209   31.2959  -73.2788 S.3       11 UNK        -0.2615 
     17 C17       -73.7398   31.9214  -74.6893 C.3       11 UNK        -0.0865 
     18 CA        -72.2436   32.1489  -74.3478 C.3       10 UNK         0.0862 
     19 C         -72.0435   33.3547  -73.3797 C.2       10 UNK         0.5551 
     20 N         -71.5510   33.1581  -72.1625 N.am      10 UNK        -0.7319 
     21 O         -72.3312   34.4908  -73.7492 O.2       10 UNK        -0.5018 
     22 N         -71.5806   30.8937  -73.9570 N.am      10 UNK        -0.4509 
     23 C         -70.2581   30.7014  -73.8988 C.2       10 UNK         0.4899 
     24 O         -69.4261   31.5602  -74.1922 O.2       10 UNK        -0.4839 
     25 CA        -69.7704   29.3120  -73.4540 C.3       9 UNK         0.0222 
     26 CB        -70.0518   29.0599  -71.9583 C.3       9 UNK        -0.1966 
     27 N         -70.2599   28.2189  -74.3052 N.am      9 UNK        -0.4218 
     28 C         -71.5103   27.7541  -74.4350 C.2       9 UNK         0.5020 
     29 O         -72.4748   28.1584  -73.7815 O.2       9 UNK        -0.5274 
     30 CA        -71.6946   26.6162  -75.4535 C.3       8 UNK         0.0270 
     31 CB        -71.4508   25.2574  -74.7782 C.3       8 UNK        -0.1976 
     32 N         -73.0223   26.6189  -76.0746 N.am      8 UNK        -0.4313 
     33 C         -73.4936   27.5942  -76.8676 C.2       8 UNK         0.5041 
     34 O         -72.8343   28.5874  -77.1827 O.2       8 UNK        -0.5577 
     35 CA        -74.9374   27.4456  -77.3974 C.3       7 UNK         0.0284 
     36 CB        -75.1805   28.2319  -78.7022 C.3       7 UNK        -0.1958 
     37 N         -75.3867   26.0567  -77.5439 N.am      7 UNK        -0.4454 
     38 C         -74.8381   25.0781  -78.2805 C.2       7 UNK         0.5089 
     39 O         -73.8664   25.2355  -79.0215 O.2       7 UNK        -0.5125 
     40 CA        -75.4794   23.6794  -78.1326 C.3       6 UNK         0.0408 
     41 CB        -74.5305   22.5402  -78.5592 C.3       6 UNK        -0.1791 
     42 N         -76.0150   23.4295  -76.7859 N.am      6 UNK        -0.4762 
     43 C         -75.3422   23.4815  -75.6228 C.2       6 UNK         0.5007 
     44 O         -74.1301   23.6820  -75.5560 O.2       6 UNK        -0.5032 
     45 CA        -76.1433   23.3540  -74.3097 C.3       5 UNK         0.0783 
     46 C46       -75.9403   24.6142  -73.4315 C.3       11 UNK        -0.0857 
     47 S47       -76.7340   24.4572  -71.7967 S.3       11 UNK        -0.2512 
     48 C48       -76.0473   25.9049  -70.9323 C.3       11 UNK         0.0225 
     49 N         -77.5652   23.1117  -74.5639 N.am      5 UNK        -0.4615 
     50 C         -78.1427   21.9090  -74.6508 C.2       4 UNK         0.5053 
     51 O         -77.5380   20.8458  -74.5115 O.2       4 UNK        -0.5105 
     52 CA        -79.6520   21.8875  -74.9520 C.3       4 UNK         0.0263 
     53 CB        -80.4509   21.6843  -73.6548 C.3       4 UNK        -0.1981 
     54 N         -80.1269   23.0991  -75.6318 N.am      4 UNK        -0.4224 
     55 C         -79.8231   23.4178  -76.8987 C.2       3 UNK         0.4895 
     56 O         -79.1102   22.7243  -77.6247 O.2       3 UNK        -0.5091 
     57 CA        -80.3658   24.7518  -77.4367 C.3       3 UNK         0.0250 
     58 CB        -81.8672   24.6445  -77.7488 C.3       3 UNK        -0.1996 
     59 N         -80.1323   25.8922  -76.5475 N.am      3 UNK        -0.4254 
     60 C         -78.9431   26.3148  -76.1005 C.2       2 UNK         0.5004 
     61 O         -77.8799   25.7466  -76.3407 O.2       2 UNK        -0.5226 
     62 CA        -78.9187   27.5662  -75.2110 C.3       2 UNK         0.0269 
     63 CB        -78.9909   28.8591  -76.0453 C.3       2 UNK        -0.1926 
     64 N         -79.9101   27.5381  -74.1291 N.am      2 UNK        -0.4687 
     65 C         -81.2470   27.5912  -74.1995 C.2       1 UNK         0.5165 
     66 O         -81.8614   27.8076  -75.2472 O.2       1 UNK        -0.5079 
     67 H67       -84.2625   23.9704  -74.9643 H         1 UNK         0.0900 
     68 H68       -84.1305   23.3139  -73.3309 H         1 UNK         0.0900 
     69 H69       -85.0945   24.7633  -73.6242 H         1 UNK         0.0900 
     70 H70       -84.0532   26.6521  -73.0377 H         1 UNK         0.2959 
     71 H71       -82.5716   28.2187  -72.6715 H         1 UNK         0.1079 
     72 H72       -80.2582   26.3718  -71.9200 H         1 UNK         0.0837 
     73 H73       -81.7338   26.1207  -71.0977 H         1 UNK         0.0837 
     74 H74       -79.6333   30.2450  -70.6599 H         1 UNK         0.0685 
     75 H75       -80.2634   29.7537  -72.2080 H         1 UNK         0.0685 
     76 H76       -78.4099   27.1047  -70.3817 H         1 UNK         0.1434 
     77 H77       -74.8736   27.5691  -72.7487 H         1 UNK         0.1329 
     78 H78       -78.0161   30.4634  -73.0338 H         1 UNK         0.1335 
     79 H79       -74.8182   29.2198  -74.4984 H         1 UNK         0.0680 
     80 H80       -76.2167   30.2159  -74.8301 H         1 UNK         0.0680 
     81 H81       -74.1971   32.8456  -75.0480 H         1 UNK         0.1032 
     82 H82       -73.8116   31.2214  -75.5236 H         1 UNK         0.1032 
     83 H83       -71.7634   32.4579  -75.2784 H         1 UNK         0.0461 
     84 H84       -71.4209   33.9445  -71.5461 H         1 UNK         0.3453 
     85 H85       -71.3226   32.2272  -71.8541 H         1 UNK         0.3453 
     86 H86       -72.1856   30.1113  -73.7239 H         1 UNK         0.2984 
     87 H87       -68.6861   29.3083  -73.5772 H         1 UNK         0.0554 
     88 H88       -69.6486   28.0997  -71.6368 H         1 UNK         0.0847 
     89 H89       -71.1176   29.0672  -71.7285 H         1 UNK         0.0847 
     90 H90       -69.5848   29.8289  -71.3417 H         1 UNK         0.0847 
     91 H91       -69.5551   27.8122  -74.9053 H         1 UNK         0.3141 
     92 H92       -70.9610   26.7433  -76.2524 H         1 UNK         0.0743 
     93 H93       -70.4639   25.2170  -74.3152 H         1 UNK         0.0784 
     94 H94       -71.5005   24.4417  -75.4999 H         1 UNK         0.0784 
     95 H95       -72.1859   25.0596  -73.9967 H         1 UNK         0.0784 
     96 H96       -73.6081   25.8150  -75.8859 H         1 UNK         0.3213 
     97 H97       -75.5778   27.8827  -76.6300 H         1 UNK         0.0855 
     98 H98       -74.5338   27.8836  -79.5082 H         1 UNK         0.0814 
     99 H99       -74.9833   29.2955  -78.5629 H         1 UNK         0.0814 
    100 H100      -76.2140   28.1373  -79.0352 H         1 UNK         0.0814 
    101 H101      -76.2270   25.8171  -77.0158 H         1 UNK         0.3105 
    102 H102      -76.3379   23.6668  -78.8056 H         1 UNK         0.0547 
    103 H103      -75.0085   21.5663  -78.4562 H         1 UNK         0.0837 
    104 H104      -73.6165   22.5308  -77.9646 H         1 UNK         0.0837 
    105 H105      -74.2365   22.6462  -79.6041 H         1 UNK         0.0837 
    106 H106      -77.0183   23.2981  -76.7403 H         1 UNK         0.3020 
    107 H107      -75.7209   22.4995  -73.7758 H         1 UNK         0.1245 
    108 H108      -76.3406   25.4975  -73.9323 H         1 UNK         0.0781 
    109 H109      -74.8774   24.8052  -73.2693 H         1 UNK         0.0781 
    110 H110      -74.9575   25.8842  -70.9863 H         1 UNK         0.0836 
    111 H111      -76.3002   25.8381  -69.8732 H         1 UNK         0.0836 
    112 H112      -78.1344   23.9323  -74.7145 H         1 UNK         0.3022 
    113 H113      -79.8435   21.0353  -75.6076 H         1 UNK         0.0747 
    114 H114      -81.5209   21.6196  -73.8533 H         1 UNK         0.0793 
    115 H115      -80.1564   20.7609  -73.1542 H         1 UNK         0.0793 
    116 H116      -80.2901   22.5028  -72.9517 H         1 UNK         0.0793 
    117 H117      -80.7196   23.7253  -75.0860 H         1 UNK         0.3047 
    118 H118      -79.8399   24.9621  -78.3703 H         1 UNK         0.0822 
    119 H119      -82.2359   25.5473  -78.2362 H         1 UNK         0.0807 
    120 H120      -82.4576   24.4878  -76.8455 H         1 UNK         0.0807 
    121 H121      -82.0688   23.8091  -78.4208 H         1 UNK         0.0807 
    122 H122      -80.9450   26.4305  -76.2622 H         1 UNK         0.2946 
    123 H123      -77.9477   27.5566  -74.7148 H         1 UNK         0.1144 
    124 H124      -78.9201   29.7433  -75.4125 H         1 UNK         0.0793 
    125 H125      -79.9160   28.9298  -76.6175 H         1 UNK         0.0793 
    126 H126      -78.1672   28.9045  -76.7590 H         1 UNK         0.0793 
    127 H127      -79.5119   27.3627  -73.2165 H         1 UNK         0.2896 
@<TRIPOS>BOND
     1    1    2 1    
     2    1   67 1    
     3    1   68 1    
     4    1   69 1    
     5    2    3 2    
     6    2    4 am   BACKBONE|DICT|INTERRES
     7    4    5 1    
     8    4   70 1    
     9    5    6 1    
    10    5   65 1    
    11    5   71 1    
    12    6    7 1    
    13    6   72 1    
    14    6   73 1    
    15    7    8 1    
    16    8    9 1    
    17    8   74 1    
    18    8   75 1    
    19    9   10 ar   
    20    9   14 ar   
    21   10   11 ar   
    22   10   76 1    
    23   11   12 ar   
    24   11   48 1    
    25   12   13 ar   
    26   12   77 1    
    27   13   14 ar   
    28   13   15 1    
    29   14   78 1    
    30   15   16 1    
    31   15   79 1    
    32   15   80 1    
    33   16   17 1    
    34   17   18 1    
    35   17   81 1    
    36   17   82 1    
    37   18   19 1    
    38   18   22 1    
    39   18   83 1    
    40   19   20 am   BACKBONE|DICT|INTERRES
    41   19   21 2    
    42   20   84 1    
    43   20   85 1    
    44   22   23 am   BACKBONE|DICT|INTERRES
    45   22   86 1    
    46   23   24 2    
    47   23   25 1    
    48   25   26 1    
    49   25   27 1    
    50   25   87 1    
    51   26   88 1    
    52   26   89 1    
    53   26   90 1    
    54   27   28 am   BACKBONE|DICT|INTERRES
    55   27   91 1    
    56   28   29 2    
    57   28   30 1    
    58   30   31 1    
    59   30   32 1    
    60   30   92 1    
    61   31   93 1    
    62   31   94 1    
    63   31   95 1    
    64   32   33 am   BACKBONE|DICT|INTERRES
    65   32   96 1    
    66   33   34 2    
    67   33   35 1    
    68   35   36 1    
    69   35   37 1    
    70   35   97 1    
    71   36   98 1    
    72   36   99 1    
    73   36  100 1    
    74   37   38 am   BACKBONE|DICT|INTERRES
    75   37  101 1    
    76   38   39 2    
    77   38   40 1    
    78   40   41 1    
    79   40   42 1    
    80   40  102 1    
    81   41  103 1    
    82   41  104 1    
    83   41  105 1    
    84   42   43 am   BACKBONE|DICT|INTERRES
    85   42  106 1    
    86   43   44 2    
    87   43   45 1    
    88   45   46 1    
    89   45   49 1    
    90   45  107 1    
    91   46   47 1    
    92   46  108 1    
    93   46  109 1    
    94   47   48 1    
    95   48  110 1    
    96   48  111 1    
    97   49   50 am   BACKBONE|DICT|INTERRES
    98   49  112 1    
    99   50   51 2    
   100   50   52 1    
   101   52   53 1    
   102   52   54 1    
   103   52  113 1    
   104   53  114 1    
   105   53  115 1    
   106   53  116 1    
   107   54   55 am   BACKBONE|DICT|INTERRES
   108   54  117 1    
   109   55   56 2    
   110   55   57 1    
   111   57   58 1    
   112   57   59 1    
   113   57  118 1    
   114   58  119 1    
   115   58  120 1    
   116   58  121 1    
   117   59   60 am   BACKBONE|DICT|INTERRES
   118   59  122 1    
   119   60   61 2    
   120   60   62 1    
   121   62   63 1    
   122   62   64 1    
   123   62  123 1    
   124   63  124 1    
   125   63  125 1    
   126   63  126 1    
   127   64   65 am   BACKBONE|DICT|INTERRES
   128   64  127 1    
   129   65   66 2    
@<TRIPOS>SUBSTRUCTURE
     1 UNK         1 GROUP             0       ****    0 ROOT    
