@<TRIPOS>MOLECULE
3R135
127   129    1
SMALL
USER_CHARGES


@<TRIPOS>ATOM
      1 CA        -77.6849   24.0827  -70.8668 C.3       0 UNK        -0.1998 
      2 C         -78.9026   24.7550  -71.4815 C.2       0 UNK         0.4909 
      3 O         -78.8871   25.0660  -72.6704 O.2       0 UNK        -0.5240 
      4 N         -79.9633   24.9569  -70.6856 N.am      1 UNK        -0.4739 
      5 CA        -81.2059   25.6668  -71.0419 C.3       1 UNK         0.0864 
      6 C6        -81.0032   27.1987  -71.2078 C.3       11 UNK        -0.0881 
      7 S7        -80.3396   27.9736  -69.6912 S.3       11 UNK        -0.2682 
      8 C8        -79.9046   29.6449  -70.2763 C.3       11 UNK         0.0289 
      9 C9        -78.8438   29.6096  -71.3668 C.ar      11 UNK        -0.0687 
     10 C10       -79.1708   29.9654  -72.6796 C.ar      11 UNK        -0.0823 
     11 C11       -78.2194   29.8798  -73.7006 C.ar      11 UNK        -0.0830 
     12 C12       -76.9380   29.4102  -73.3916 C.ar      11 UNK        -0.1021 
     13 C13       -76.5806   29.1056  -72.0773 C.ar      11 UNK        -0.0753 
     14 C14       -77.5401   29.2033  -71.0670 C.ar      11 UNK        -0.0933 
     15 C15       -75.1753   28.6187  -71.7617 C.3       11 UNK         0.0166 
     16 S16       -74.1688   29.8433  -70.8627 S.3       11 UNK        -0.2615 
     17 C17       -73.6414   31.1499  -72.0419 C.3       11 UNK        -0.0865 
     18 CA        -73.6676   30.8926  -73.5828 C.3       10 UNK         0.0862 
     19 C         -73.2363   32.1511  -74.3977 C.2       10 UNK         0.5551 
     20 N         -72.6178   32.0031  -75.5636 N.am      10 UNK        -0.7319 
     21 O         -73.4854   33.2810  -73.9838 O.2       10 UNK        -0.5018 
     22 N         -73.0006   29.6531  -74.0242 N.am      10 UNK        -0.4509 
     23 C         -71.7326   29.2962  -73.7803 C.2       10 UNK         0.4899 
     24 O         -70.9558   29.9462  -73.0792 O.2       10 UNK        -0.4839 
     25 CA        -71.2382   28.0150  -74.4805 C.3       9 UNK         0.0222 
     26 CB        -69.9546   27.4326  -73.8507 C.3       9 UNK        -0.1966 
     27 N         -72.2758   26.9873  -74.6276 N.am      9 UNK        -0.4218 
     28 C         -72.8740   26.2641  -73.6676 C.2       9 UNK         0.5020 
     29 O         -72.6235   26.3690  -72.4669 O.2       9 UNK        -0.5274 
     30 CA        -73.9406   25.2423  -74.1166 C.3       8 UNK         0.0270 
     31 CB        -75.3540   25.7341  -73.7665 C.3       8 UNK        -0.1976 
     32 N         -73.8976   24.9437  -75.5488 N.am      8 UNK        -0.4313 
     33 C         -72.9405   24.2377  -76.1651 C.2       8 UNK         0.5041 
     34 O         -72.0147   23.6734  -75.5816 O.2       8 UNK        -0.5577 
     35 CA        -73.0098   24.1989  -77.6993 C.3       7 UNK         0.0284 
     36 CB        -73.9788   23.1033  -78.1727 C.3       7 UNK        -0.1958 
     37 N         -73.4048   25.4964  -78.2595 N.am      7 UNK        -0.4454 
     38 C         -72.6146   26.5801  -78.2871 C.2       7 UNK         0.5089 
     39 O         -71.4567   26.5925  -77.8717 O.2       7 UNK        -0.5125 
     40 CA        -73.2204   27.8781  -78.8476 C.3       6 UNK         0.0408 
     41 CB        -73.0313   27.9453  -80.3710 C.3       6 UNK        -0.1791 
     42 N         -74.6398   28.0343  -78.5238 N.am      6 UNK        -0.4762 
     43 C         -75.1160   28.3207  -77.3032 C.2       6 UNK         0.5007 
     44 O         -74.4063   28.4993  -76.3108 O.2       6 UNK        -0.5032 
     45 CA        -76.6522   28.3600  -77.1645 C.3       5 UNK         0.0783 
     46 C46       -77.2378   29.7505  -77.5268 C.3       11 UNK        -0.0857 
     47 S47       -77.2257   30.9174  -76.1290 S.3       11 UNK        -0.2512 
     48 C48       -78.6130   30.2703  -75.1247 C.3       11 UNK         0.0225 
     49 N         -77.3383   27.2909  -77.9006 N.am      5 UNK        -0.4615 
     50 C         -77.1491   25.9816  -77.7037 C.2       4 UNK         0.5053 
     51 O         -76.2522   25.5139  -76.9994 O.2       4 UNK        -0.5105 
     52 CA        -78.1120   25.0297  -78.4296 C.3       4 UNK         0.0263 
     53 CB        -77.4703   24.4848  -79.7155 C.3       4 UNK        -0.1981 
     54 N         -78.4844   23.9161  -77.5546 N.am      4 UNK        -0.4224 
     55 C         -79.2409   24.0465  -76.4555 C.2       3 UNK         0.4895 
     56 O         -79.8258   25.0892  -76.1499 O.2       3 UNK        -0.5091 
     57 CA        -79.3369   22.8048  -75.5536 C.3       3 UNK         0.0250 
     58 CB        -77.9801   22.4914  -74.8966 C.3       3 UNK        -0.1996 
     59 N         -80.3323   22.9956  -74.4969 N.am      3 UNK        -0.4254 
     60 C         -81.6189   22.6338  -74.5899 C.2       2 UNK         0.5004 
     61 O         -82.0969   22.0807  -75.5822 O.2       2 UNK        -0.5226 
     62 CA        -82.5336   22.8896  -73.3762 C.3       2 UNK         0.0269 
     63 CB        -82.9976   21.5560  -72.7640 C.3       2 UNK        -0.1926 
     64 N         -81.9000   23.6877  -72.3222 N.am      2 UNK        -0.4687 
     65 C         -81.9486   25.0248  -72.2401 C.2       1 UNK         0.5165 
     66 O         -82.5539   25.7298  -73.0500 O.2       1 UNK        -0.5079 
     67 H67       -77.3975   23.2131  -71.4573 H         1 UNK         0.0900 
     68 H68       -77.8727   23.7529  -69.8453 H         1 UNK         0.0900 
     69 H69       -76.8452   24.7767  -70.8510 H         1 UNK         0.0900 
     70 H70       -79.9081   24.6627  -69.7202 H         1 UNK         0.2959 
     71 H71       -81.8805   25.5260  -70.1957 H         1 UNK         0.1079 
     72 H72       -80.3321   27.3943  -72.0456 H         1 UNK         0.0837 
     73 H73       -81.9462   27.6950  -71.4441 H         1 UNK         0.0837 
     74 H74       -80.8084   30.1470  -70.6250 H         1 UNK         0.0685 
     75 H75       -79.5335   30.2297  -69.4335 H         1 UNK         0.0685 
     76 H76       -80.1754   30.2933  -72.9102 H         1 UNK         0.1434 
     77 H77       -76.2081   29.2817  -74.1755 H         1 UNK         0.1329 
     78 H78       -77.2800   28.9372  -70.0516 H         1 UNK         0.1335 
     79 H79       -74.6641   28.2970  -72.6633 H         1 UNK         0.0680 
     80 H80       -75.2508   27.7283  -71.1362 H         1 UNK         0.0680 
     81 H81       -74.2723   32.0124  -71.8198 H         1 UNK         0.1032 
     82 H82       -72.6377   31.4559  -71.7431 H         1 UNK         0.1032 
     83 H83       -74.7089   30.7771  -73.8624 H         1 UNK         0.0461 
     84 H84       -72.3500   32.8203  -76.0888 H         1 UNK         0.3453 
     85 H85       -72.4297   31.0827  -75.9260 H         1 UNK         0.3453 
     86 H86       -73.5297   29.0930  -74.6870 H         1 UNK         0.2984 
     87 H87       -70.9860   28.3170  -75.4980 H         1 UNK         0.0554 
     88 H88       -69.6268   26.5358  -74.3765 H         1 UNK         0.0847 
     89 H89       -70.0987   27.1742  -72.8013 H         1 UNK         0.0847 
     90 H90       -69.1357   28.1513  -73.8969 H         1 UNK         0.0847 
     91 H91       -72.5886   26.8298  -75.5758 H         1 UNK         0.3141 
     92 H92       -73.7555   24.3143  -73.5718 H         1 UNK         0.0743 
     93 H93       -75.4647   25.8761  -72.6919 H         1 UNK         0.0784 
     94 H94       -75.5850   26.6809  -74.2554 H         1 UNK         0.0784 
     95 H95       -76.1130   25.0157  -74.0719 H         1 UNK         0.0784 
     96 H96       -74.6733   25.2955  -76.1095 H         1 UNK         0.3213 
     97 H97       -72.0128   23.9556  -78.0738 H         1 UNK         0.0855 
     98 H98       -74.9872   23.2576  -77.7882 H         1 UNK         0.0814 
     99 H99       -73.6498   22.1224  -77.8273 H         1 UNK         0.0814 
    100 H100      -74.0328   23.0612  -79.2606 H         1 UNK         0.0814 
    101 H101      -74.3618   25.5901  -78.5670 H         1 UNK         0.3105 
    102 H102      -72.6776   28.7153  -78.4030 H         1 UNK         0.0547 
    103 H103      -73.5652   27.1438  -80.8832 H         1 UNK         0.0837 
    104 H104      -73.3838   28.8951  -80.7734 H         1 UNK         0.0837 
    105 H105      -71.9770   27.8552  -80.6367 H         1 UNK         0.0837 
    106 H106      -75.3008   27.8971  -79.2753 H         1 UNK         0.3020 
    107 H107      -76.8646   28.1524  -76.1142 H         1 UNK         0.1245 
    108 H108      -78.2742   29.6625  -77.8574 H         1 UNK         0.0781 
    109 H109      -76.7088   30.2020  -78.3687 H         1 UNK         0.0781 
    110 H110      -79.3875   31.0384  -75.0969 H         1 UNK         0.0836 
    111 H111      -79.0642   29.4012  -75.6052 H         1 UNK         0.0836 
    112 H112      -78.0818   27.5821  -78.5187 H         1 UNK         0.3022 
    113 H113      -79.0205   25.5740  -78.6965 H         1 UNK         0.0747 
    114 H114      -77.1972   25.2965  -80.3911 H         1 UNK         0.0793 
    115 H115      -78.1590   23.8350  -80.2560 H         1 UNK         0.0793 
    116 H116      -76.5651   23.9138  -79.5100 H         1 UNK         0.0793 
    117 H117      -78.0198   23.0362  -77.7234 H         1 UNK         0.3047 
    118 H118      -79.6195   21.9551  -76.1791 H         1 UNK         0.0822 
    119 H119      -77.2020   22.3184  -75.6409 H         1 UNK         0.0807 
    120 H120      -78.0385   21.5953  -74.2787 H         1 UNK         0.0807 
    121 H121      -77.6444   23.3102  -74.2619 H         1 UNK         0.0807 
    122 H122      -80.0383   23.5612  -73.7088 H         1 UNK         0.2946 
    123 H123      -83.4159   23.4149  -73.7497 H         1 UNK         0.1144 
    124 H124      -83.5156   20.9437  -73.5036 H         1 UNK         0.0793 
    125 H125      -83.6920   21.7182  -71.9394 H         1 UNK         0.0793 
    126 H126      -82.1581   20.9705  -72.3871 H         1 UNK         0.0793 
    127 H127      -81.3710   23.1849  -71.6235 H         1 UNK         0.2896 
@<TRIPOS>BOND
     1    1    2 1    
     2    1   67 1    
     3    1   68 1    
     4    1   69 1    
     5    2    3 2    
     6    2    4 am   BACKBONE|DICT|INTERRES
     7    4    5 1    
     8    4   70 1    
     9    5    6 1    
    10    5   65 1    
    11    5   71 1    
    12    6    7 1    
    13    6   72 1    
    14    6   73 1    
    15    7    8 1    
    16    8    9 1    
    17    8   74 1    
    18    8   75 1    
    19    9   10 ar   
    20    9   14 ar   
    21   10   11 ar   
    22   10   76 1    
    23   11   12 ar   
    24   11   48 1    
    25   12   13 ar   
    26   12   77 1    
    27   13   14 ar   
    28   13   15 1    
    29   14   78 1    
    30   15   16 1    
    31   15   79 1    
    32   15   80 1    
    33   16   17 1    
    34   17   18 1    
    35   17   81 1    
    36   17   82 1    
    37   18   19 1    
    38   18   22 1    
    39   18   83 1    
    40   19   20 am   BACKBONE|DICT|INTERRES
    41   19   21 2    
    42   20   84 1    
    43   20   85 1    
    44   22   23 am   BACKBONE|DICT|INTERRES
    45   22   86 1    
    46   23   24 2    
    47   23   25 1    
    48   25   26 1    
    49   25   27 1    
    50   25   87 1    
    51   26   88 1    
    52   26   89 1    
    53   26   90 1    
    54   27   28 am   BACKBONE|DICT|INTERRES
    55   27   91 1    
    56   28   29 2    
    57   28   30 1    
    58   30   31 1    
    59   30   32 1    
    60   30   92 1    
    61   31   93 1    
    62   31   94 1    
    63   31   95 1    
    64   32   33 am   BACKBONE|DICT|INTERRES
    65   32   96 1    
    66   33   34 2    
    67   33   35 1    
    68   35   36 1    
    69   35   37 1    
    70   35   97 1    
    71   36   98 1    
    72   36   99 1    
    73   36  100 1    
    74   37   38 am   BACKBONE|DICT|INTERRES
    75   37  101 1    
    76   38   39 2    
    77   38   40 1    
    78   40   41 1    
    79   40   42 1    
    80   40  102 1    
    81   41  103 1    
    82   41  104 1    
    83   41  105 1    
    84   42   43 am   BACKBONE|DICT|INTERRES
    85   42  106 1    
    86   43   44 2    
    87   43   45 1    
    88   45   46 1    
    89   45   49 1    
    90   45  107 1    
    91   46   47 1    
    92   46  108 1    
    93   46  109 1    
    94   47   48 1    
    95   48  110 1    
    96   48  111 1    
    97   49   50 am   BACKBONE|DICT|INTERRES
    98   49  112 1    
    99   50   51 2    
   100   50   52 1    
   101   52   53 1    
   102   52   54 1    
   103   52  113 1    
   104   53  114 1    
   105   53  115 1    
   106   53  116 1    
   107   54   55 am   BACKBONE|DICT|INTERRES
   108   54  117 1    
   109   55   56 2    
   110   55   57 1    
   111   57   58 1    
   112   57   59 1    
   113   57  118 1    
   114   58  119 1    
   115   58  120 1    
   116   58  121 1    
   117   59   60 am   BACKBONE|DICT|INTERRES
   118   59  122 1    
   119   60   61 2    
   120   60   62 1    
   121   62   63 1    
   122   62   64 1    
   123   62  123 1    
   124   63  124 1    
   125   63  125 1    
   126   63  126 1    
   127   64   65 am   BACKBONE|DICT|INTERRES
   128   64  127 1    
   129   65   66 2    
@<TRIPOS>SUBSTRUCTURE
     1 UNK         1 GROUP             0       ****    0 ROOT    
