@<TRIPOS>MOLECULE
3R135
127   129    1
SMALL
USER_CHARGES


@<TRIPOS>ATOM
      1 CA        -79.7502   32.1101  -73.3060 C.3       0 UNK        -0.1998 
      2 C         -80.6130   30.8703  -73.1220 C.2       0 UNK         0.4909 
      3 O         -81.8323   30.9498  -73.2764 O.2       0 UNK        -0.5240 
      4 N         -79.9849   29.7343  -72.7910 N.am      1 UNK        -0.4739 
      5 CA        -80.6043   28.4184  -72.5812 C.3       1 UNK         0.0864 
      6 C6        -81.5609   28.3477  -71.3505 C.3       11 UNK        -0.0881 
      7 S7        -80.8586   29.0194  -69.8049 S.3       11 UNK        -0.2682 
      8 C8        -79.9262   27.5955  -69.1460 C.3       11 UNK         0.0289 
      9 C9        -78.6523   27.3022  -69.9317 C.ar      11 UNK        -0.0687 
     10 C10       -78.3475   25.9919  -70.3163 C.ar      11 UNK        -0.0823 
     11 C11       -77.1746   25.7130  -71.0270 C.ar      11 UNK        -0.0830 
     12 C12       -76.3122   26.7598  -71.3672 C.ar      11 UNK        -0.1021 
     13 C13       -76.6135   28.0737  -71.0027 C.ar      11 UNK        -0.0753 
     14 C14       -77.7704   28.3355  -70.2666 C.ar      11 UNK        -0.0933 
     15 C15       -75.6975   29.2146  -71.4082 C.3       11 UNK         0.0166 
     16 S16       -76.3336   30.0594  -72.8883 S.3       11 UNK        -0.2615 
     17 C17       -75.0692   31.3597  -73.0956 C.3       11 UNK        -0.0865 
     18 CA        -74.6369   31.5853  -74.5692 C.3       10 UNK         0.0862 
     19 C         -73.5540   32.7041  -74.6333 C.2       10 UNK         0.5551 
     20 N         -72.2861   32.3890  -74.8769 N.am      10 UNK        -0.7319 
     21 O         -73.8743   33.8762  -74.4534 O.2       10 UNK        -0.5018 
     22 N         -74.2508   30.3293  -75.2310 N.am      10 UNK        -0.4509 
     23 C         -74.0041   30.1871  -76.5403 C.2       10 UNK         0.4899 
     24 O         -74.2208   31.0699  -77.3721 O.2       10 UNK        -0.4839 
     25 CA        -73.4085   28.8384  -77.0003 C.3       9 UNK         0.0222 
     26 CB        -72.4384   29.0055  -78.1881 C.3       9 UNK        -0.1966 
     27 N         -72.7708   28.0565  -75.9311 N.am      9 UNK        -0.4218 
     28 C         -71.7570   28.4241  -75.1294 C.2       9 UNK         0.5020 
     29 O         -71.2107   29.5279  -75.1666 O.2       9 UNK        -0.5274 
     30 CA        -71.3021   27.3931  -74.0879 C.3       8 UNK         0.0270 
     31 CB        -72.3019   27.3340  -72.9200 C.3       8 UNK        -0.1976 
     32 N         -71.1768   26.0664  -74.6921 N.am      8 UNK        -0.4313 
     33 C         -70.0205   25.5019  -75.0671 C.2       8 UNK         0.5041 
     34 O         -68.9136   26.0054  -74.8712 O.2       8 UNK        -0.5577 
     35 CA        -70.1043   24.1417  -75.7866 C.3       7 UNK         0.0284 
     36 CB        -69.9573   22.9909  -74.7783 C.3       7 UNK        -0.1958 
     37 N         -71.3457   23.9650  -76.5446 N.am      7 UNK        -0.4454 
     38 C         -71.6753   24.6628  -77.6403 C.2       7 UNK         0.5089 
     39 O         -70.9192   25.4595  -78.1956 O.2       7 UNK        -0.5125 
     40 CA        -73.0953   24.4623  -78.2023 C.3       6 UNK         0.0408 
     41 CB        -73.0608   23.5374  -79.4291 C.3       6 UNK        -0.1791 
     42 N         -74.0834   23.9479  -77.2445 N.am      6 UNK        -0.4762 
     43 C         -74.4651   24.5345  -76.1009 C.2       6 UNK         0.5007 
     44 O         -73.9207   25.5455  -75.6512 O.2       6 UNK        -0.5032 
     45 CA        -75.6484   23.8885  -75.3450 C.3       5 UNK         0.0783 
     46 C46       -76.0620   24.7129  -74.0992 C.3       11 UNK        -0.0857 
     47 S47       -77.3551   23.8878  -73.1102 S.3       11 UNK        -0.2512 
     48 C48       -76.8324   24.2795  -71.4107 C.3       11 UNK         0.0225 
     49 N         -76.7875   23.6672  -76.2422 N.am      5 UNK        -0.4615 
     50 C         -76.9381   22.6562  -77.1033 C.2       4 UNK         0.5053 
     51 O         -76.0826   21.7841  -77.2659 O.2       4 UNK        -0.5105 
     52 CA        -78.2455   22.6297  -77.9242 C.3       4 UNK         0.0263 
     53 CB        -78.3714   21.3622  -78.7909 C.3       4 UNK        -0.1981 
     54 N         -79.4488   22.7567  -77.0927 N.am      4 UNK        -0.4224 
     55 C         -79.8929   23.8899  -76.5344 C.2       3 UNK         0.4895 
     56 O         -79.3121   24.9744  -76.6368 O.2       3 UNK        -0.5091 
     57 CA        -81.1809   23.7886  -75.7096 C.3       3 UNK         0.0250 
     58 CB        -80.9319   23.0937  -74.3576 C.3       3 UNK        -0.1996 
     59 N         -81.6972   25.1345  -75.4842 N.am      3 UNK        -0.4254 
     60 C         -82.9652   25.4587  -75.2194 C.2       2 UNK         0.5004 
     61 O         -83.8727   24.6314  -75.1119 O.2       2 UNK        -0.5226 
     62 CA        -83.2524   26.9581  -75.0141 C.3       2 UNK         0.0269 
     63 CB        -84.7504   27.2536  -74.8088 C.3       2 UNK        -0.1926 
     64 N         -82.5072   27.4884  -73.8692 N.am      2 UNK        -0.4687 
     65 C         -81.2300   27.8961  -73.8959 C.2       1 UNK         0.5165 
     66 O         -80.5380   27.8576  -74.9157 O.2       1 UNK        -0.5079 
     67 H67       -79.7738   32.4324  -74.3465 H         1 UNK         0.0900 
     68 H68       -78.7121   31.9305  -73.0291 H         1 UNK         0.0900 
     69 H69       -80.1265   32.9244  -72.6875 H         1 UNK         0.0900 
     70 H70       -78.9765   29.7410  -72.7117 H         1 UNK         0.2959 
     71 H71       -79.7756   27.7368  -72.3886 H         1 UNK         0.1079 
     72 H72       -82.4740   28.9130  -71.5455 H         1 UNK         0.0837 
     73 H73       -81.8708   27.3176  -71.1647 H         1 UNK         0.0837 
     74 H74       -80.5804   26.7228  -69.1164 H         1 UNK         0.0685 
     75 H75       -79.6508   27.8093  -68.1125 H         1 UNK         0.0685 
     76 H76       -79.0191   25.1850  -70.0559 H         1 UNK         0.1434 
     77 H77       -75.4069   26.5562  -71.9201 H         1 UNK         0.1329 
     78 H78       -77.9970   29.3522  -69.9756 H         1 UNK         0.1335 
     79 H79       -74.6911   28.8426  -71.6035 H         1 UNK         0.0680 
     80 H80       -75.6125   29.9300  -70.5886 H         1 UNK         0.0680 
     81 H81       -75.4731   32.2833  -72.6759 H         1 UNK         0.1032 
     82 H82       -74.1964   31.1131  -72.4876 H         1 UNK         0.1032 
     83 H83       -75.5054   31.9669  -75.1095 H         1 UNK         0.0461 
     84 H84       -71.5949   33.1208  -74.9169 H         1 UNK         0.3453 
     85 H85       -72.0081   31.4239  -75.0179 H         1 UNK         0.3453 
     86 H86       -74.0709   29.5462  -74.6225 H         1 UNK         0.2984 
     87 H87       -74.2524   28.2389  -77.3444 H         1 UNK         0.0554 
     88 H88       -72.0448   28.0437  -78.5169 H         1 UNK         0.0847 
     89 H89       -71.5921   29.6429  -77.9300 H         1 UNK         0.0847 
     90 H90       -72.9376   29.4582  -79.0455 H         1 UNK         0.0847 
     91 H91       -73.1805   27.1339  -75.7863 H         1 UNK         0.3141 
     92 H92       -70.3392   27.7209  -73.6900 H         1 UNK         0.0743 
     93 H93       -72.4019   28.3110  -72.4457 H         1 UNK         0.0784 
     94 H94       -73.2951   27.0225  -73.2456 H         1 UNK         0.0784 
     95 H95       -71.9692   26.6356  -72.1522 H         1 UNK         0.0784 
     96 H96       -72.0425   25.5991  -74.9381 H         1 UNK         0.3213 
     97 H97       -69.2698   24.0905  -76.4893 H         1 UNK         0.0855 
     98 H98       -70.7732   22.9790  -74.0548 H         1 UNK         0.0814 
     99 H99       -69.0263   23.0822  -74.2170 H         1 UNK         0.0814 
    100 H100      -69.9369   22.0232  -75.2797 H         1 UNK         0.0814 
    101 H101      -72.0237   23.3139  -76.1766 H         1 UNK         0.3105 
    102 H102      -73.4466   25.4437  -78.5276 H         1 UNK         0.0547 
    103 H103      -72.7505   22.5263  -79.1628 H         1 UNK         0.0837 
    104 H104      -74.0384   23.4742  -79.9072 H         1 UNK         0.0837 
    105 H105      -72.3597   23.9070  -80.1790 H         1 UNK         0.0837 
    106 H106      -74.5829   23.1054  -77.5136 H         1 UNK         0.3020 
    107 H107      -75.2931   22.9170  -74.9936 H         1 UNK         0.1245 
    108 H108      -76.4241   25.7022  -74.3866 H         1 UNK         0.0781 
    109 H109      -75.1902   24.8742  -73.4637 H         1 UNK         0.0781 
    110 H110      -77.3258   23.5851  -70.7288 H         1 UNK         0.0836 
    111 H111      -75.7626   24.0993  -71.2950 H         1 UNK         0.0836 
    112 H112      -77.5387   24.3496  -76.1925 H         1 UNK         0.3022 
    113 H113      -78.2056   23.4861  -78.6009 H         1 UNK         0.0747 
    114 H114      -77.5243   21.2666  -79.4717 H         1 UNK         0.0793 
    115 H115      -79.2725   21.3876  -79.4040 H         1 UNK         0.0793 
    116 H116      -78.4039   20.4581  -78.1815 H         1 UNK         0.0793 
    117 H117      -79.9638   21.9040  -76.9251 H         1 UNK         0.3047 
    118 H118      -81.9087   23.2167  -76.2895 H         1 UNK         0.0822 
    119 H119      -80.4828   22.1087  -74.4895 H         1 UNK         0.0807 
    120 H120      -81.8628   22.9512  -73.8086 H         1 UNK         0.0807 
    121 H121      -80.2620   23.6777  -73.7263 H         1 UNK         0.0807 
    122 H122      -81.0063   25.8746  -75.5803 H         1 UNK         0.2946 
    123 H123      -82.9343   27.4755  -75.9226 H         1 UNK         0.1144 
    124 H124      -85.1409   26.7685  -73.9132 H         1 UNK         0.0793 
    125 H125      -85.3384   26.8975  -75.6558 H         1 UNK         0.0793 
    126 H126      -84.9339   28.3243  -74.7175 H         1 UNK         0.0793 
    127 H127      -83.0095   27.5302  -72.9946 H         1 UNK         0.2896 
@<TRIPOS>BOND
     1    1    2 1    
     2    1   67 1    
     3    1   68 1    
     4    1   69 1    
     5    2    3 2    
     6    2    4 am   BACKBONE|DICT|INTERRES
     7    4    5 1    
     8    4   70 1    
     9    5    6 1    
    10    5   65 1    
    11    5   71 1    
    12    6    7 1    
    13    6   72 1    
    14    6   73 1    
    15    7    8 1    
    16    8    9 1    
    17    8   74 1    
    18    8   75 1    
    19    9   10 ar   
    20    9   14 ar   
    21   10   11 ar   
    22   10   76 1    
    23   11   12 ar   
    24   11   48 1    
    25   12   13 ar   
    26   12   77 1    
    27   13   14 ar   
    28   13   15 1    
    29   14   78 1    
    30   15   16 1    
    31   15   79 1    
    32   15   80 1    
    33   16   17 1    
    34   17   18 1    
    35   17   81 1    
    36   17   82 1    
    37   18   19 1    
    38   18   22 1    
    39   18   83 1    
    40   19   20 am   BACKBONE|DICT|INTERRES
    41   19   21 2    
    42   20   84 1    
    43   20   85 1    
    44   22   23 am   BACKBONE|DICT|INTERRES
    45   22   86 1    
    46   23   24 2    
    47   23   25 1    
    48   25   26 1    
    49   25   27 1    
    50   25   87 1    
    51   26   88 1    
    52   26   89 1    
    53   26   90 1    
    54   27   28 am   BACKBONE|DICT|INTERRES
    55   27   91 1    
    56   28   29 2    
    57   28   30 1    
    58   30   31 1    
    59   30   32 1    
    60   30   92 1    
    61   31   93 1    
    62   31   94 1    
    63   31   95 1    
    64   32   33 am   BACKBONE|DICT|INTERRES
    65   32   96 1    
    66   33   34 2    
    67   33   35 1    
    68   35   36 1    
    69   35   37 1    
    70   35   97 1    
    71   36   98 1    
    72   36   99 1    
    73   36  100 1    
    74   37   38 am   BACKBONE|DICT|INTERRES
    75   37  101 1    
    76   38   39 2    
    77   38   40 1    
    78   40   41 1    
    79   40   42 1    
    80   40  102 1    
    81   41  103 1    
    82   41  104 1    
    83   41  105 1    
    84   42   43 am   BACKBONE|DICT|INTERRES
    85   42  106 1    
    86   43   44 2    
    87   43   45 1    
    88   45   46 1    
    89   45   49 1    
    90   45  107 1    
    91   46   47 1    
    92   46  108 1    
    93   46  109 1    
    94   47   48 1    
    95   48  110 1    
    96   48  111 1    
    97   49   50 am   BACKBONE|DICT|INTERRES
    98   49  112 1    
    99   50   51 2    
   100   50   52 1    
   101   52   53 1    
   102   52   54 1    
   103   52  113 1    
   104   53  114 1    
   105   53  115 1    
   106   53  116 1    
   107   54   55 am   BACKBONE|DICT|INTERRES
   108   54  117 1    
   109   55   56 2    
   110   55   57 1    
   111   57   58 1    
   112   57   59 1    
   113   57  118 1    
   114   58  119 1    
   115   58  120 1    
   116   58  121 1    
   117   59   60 am   BACKBONE|DICT|INTERRES
   118   59  122 1    
   119   60   61 2    
   120   60   62 1    
   121   62   63 1    
   122   62   64 1    
   123   62  123 1    
   124   63  124 1    
   125   63  125 1    
   126   63  126 1    
   127   64   65 am   BACKBONE|DICT|INTERRES
   128   64  127 1    
   129   65   66 2    
@<TRIPOS>SUBSTRUCTURE
     1 UNK         1 GROUP             0       ****    0 ROOT    
