@<TRIPOS>MOLECULE
3R135
127   129    1
SMALL
USER_CHARGES


@<TRIPOS>ATOM
      1 CA        -84.9157   28.3303  -72.5751 C.3       0 UNK        -0.1998 
      2 C         -83.4735   28.1353  -73.0166 C.2       0 UNK         0.4909 
      3 O         -82.9404   28.9621  -73.7586 O.2       0 UNK        -0.5240 
      4 N         -82.8337   27.0465  -72.5719 N.am      1 UNK        -0.4739 
      5 CA        -81.4486   26.6898  -72.8969 C.3       1 UNK         0.0864 
      6 C6        -80.8086   25.7883  -71.8087 C.3       11 UNK        -0.0881 
      7 S7        -80.8227   26.5462  -70.1485 S.3       11 UNK        -0.2682 
      8 C8        -79.0740   26.3718  -69.6407 C.3       11 UNK         0.0289 
      9 C9        -78.0683   27.2925  -70.3382 C.ar      11 UNK        -0.0687 
     10 C10       -78.4539   28.3854  -71.1250 C.ar      11 UNK        -0.0823 
     11 C11       -77.4959   29.2046  -71.7268 C.ar      11 UNK        -0.0830 
     12 C12       -76.1397   28.9588  -71.5019 C.ar      11 UNK        -0.1021 
     13 C13       -75.7308   27.8613  -70.7394 C.ar      11 UNK        -0.0753 
     14 C14       -76.7036   27.0384  -70.1605 C.ar      11 UNK        -0.0933 
     15 C15       -74.2508   27.5562  -70.5168 C.3       11 UNK         0.0166 
     16 S16       -73.2435   27.6184  -72.0418 S.3       11 UNK        -0.2615 
     17 C17       -72.5763   29.3198  -72.0006 C.3       11 UNK        -0.0865 
     18 CA        -72.7920   30.1107  -73.3189 C.3       10 UNK         0.0862 
     19 C         -72.3783   31.5994  -73.1212 C.2       10 UNK         0.5551 
     20 N         -71.2997   32.0789  -73.7294 N.am      10 UNK        -0.7319 
     21 O         -73.0506   32.3299  -72.3976 O.2       10 UNK        -0.5018 
     22 N         -72.1660   29.4395  -74.4707 N.am      10 UNK        -0.4509 
     23 C         -72.3852   29.7450  -75.7548 C.2       10 UNK         0.4899 
     24 O         -73.1389   30.6492  -76.1183 O.2       10 UNK        -0.4839 
     25 CA        -71.6470   28.9336  -76.8382 C.3       9 UNK         0.0222 
     26 CB        -70.4012   29.6954  -77.3326 C.3       9 UNK        -0.1966 
     27 N         -71.3147   27.5368  -76.5135 N.am      9 UNK        -0.4218 
     28 C         -70.4630   27.0567  -75.5929 C.2       9 UNK         0.5020 
     29 O         -69.8767   27.7676  -74.7747 O.2       9 UNK        -0.5274 
     30 CA        -70.1804   25.5380  -75.6091 C.3       8 UNK         0.0270 
     31 CB        -69.8332   24.9791  -74.2112 C.3       8 UNK        -0.1976 
     32 N         -71.2235   24.7421  -76.2723 N.am      8 UNK        -0.4313 
     33 C         -72.4782   24.5362  -75.8482 C.2       8 UNK         0.5041 
     34 O         -72.9214   24.9227  -74.7674 O.2       8 UNK        -0.5577 
     35 CA        -73.4106   23.7972  -76.8244 C.3       7 UNK         0.0284 
     36 CB        -74.0079   22.5383  -76.1738 C.3       7 UNK        -0.1958 
     37 N         -74.4930   24.6748  -77.2734 N.am      7 UNK        -0.4454 
     38 C         -74.3215   25.8194  -77.9503 C.2       7 UNK         0.5089 
     39 O         -73.2296   26.2085  -78.3701 O.2       7 UNK        -0.5125 
     40 CA        -75.5689   26.6941  -78.1692 C.3       6 UNK         0.0408 
     41 CB        -76.3870   26.1880  -79.3668 C.3       6 UNK        -0.1791 
     42 N         -76.4284   26.7812  -76.9845 N.am      6 UNK        -0.4762 
     43 C         -76.0556   27.3046  -75.8043 C.2       6 UNK         0.5007 
     44 O         -74.9477   27.7939  -75.5995 O.2       6 UNK        -0.5032 
     45 CA        -77.0863   27.2561  -74.6599 C.3       5 UNK         0.0783 
     46 C46       -78.1160   28.4138  -74.7511 C.3       11 UNK        -0.0857 
     47 S47       -77.3914   30.0486  -74.3700 S.3       11 UNK        -0.2512 
     48 C48       -77.9255   30.3359  -72.6492 C.3       11 UNK         0.0225 
     49 N         -77.7329   25.9409  -74.6454 N.am      5 UNK        -0.4615 
     50 C         -77.2281   24.8649  -74.0223 C.2       4 UNK         0.5053 
     51 O         -76.2915   24.9158  -73.2280 O.2       4 UNK        -0.5105 
     52 CA        -77.8407   23.4872  -74.3426 C.3       4 UNK         0.0263 
     53 CB        -78.5906   22.8972  -73.1363 C.3       4 UNK        -0.1981 
     54 N         -78.7222   23.5023  -75.5123 N.am      4 UNK        -0.4224 
     55 C         -78.2832   23.4734  -76.7792 C.2       3 UNK         0.4895 
     56 O         -77.0943   23.3978  -77.0854 O.2       3 UNK        -0.5091 
     57 CA        -79.3345   23.6038  -77.8966 C.3       3 UNK         0.0250 
     58 CB        -79.8572   22.2182  -78.3060 C.3       3 UNK        -0.1996 
     59 N         -80.4651   24.4697  -77.5486 N.am      3 UNK        -0.4254 
     60 C         -80.3661   25.7597  -77.1985 C.2       2 UNK         0.5004 
     61 O         -79.2956   26.3670  -77.1509 O.2       2 UNK        -0.5226 
     62 CA        -81.6543   26.4849  -76.7640 C.3       2 UNK         0.0269 
     63 CB        -82.9531   25.7061  -77.0736 C.3       2 UNK        -0.1926 
     64 N         -81.6176   26.8540  -75.3422 N.am      2 UNK        -0.4687 
     65 C         -81.3821   26.0443  -74.2983 C.2       1 UNK         0.5165 
     66 O         -81.1497   24.8388  -74.4108 O.2       1 UNK        -0.5079 
     67 H67       -85.2526   27.5290  -71.9176 H         1 UNK         0.0900 
     68 H68       -85.5733   28.3563  -73.4435 H         1 UNK         0.0900 
     69 H69       -85.0193   29.2740  -72.0402 H         1 UNK         0.0900 
     70 H70       -83.3192   26.3950  -71.9715 H         1 UNK         0.2959 
     71 H71       -80.8625   27.6085  -72.9424 H         1 UNK         0.1079 
     72 H72       -81.3242   24.8281  -71.7448 H         1 UNK         0.0837 
     73 H73       -79.7751   25.5669  -72.0797 H         1 UNK         0.0837 
     74 H74       -79.0173   26.5626  -68.5683 H         1 UNK         0.0685 
     75 H75       -78.7751   25.3318  -69.7826 H         1 UNK         0.0685 
     76 H76       -79.4990   28.6074  -71.2786 H         1 UNK         0.1434 
     77 H77       -75.4051   29.6043  -71.9577 H         1 UNK         0.1329 
     78 H78       -76.3966   26.1939  -69.5584 H         1 UNK         0.1335 
     79 H79       -74.1410   26.5525  -70.1034 H         1 UNK         0.0680 
     80 H80       -73.8488   28.2339  -69.7631 H         1 UNK         0.0680 
     81 H81       -71.5112   29.2589  -71.7693 H         1 UNK         0.1032 
     82 H82       -73.0299   29.8566  -71.1653 H         1 UNK         0.1032 
     83 H83       -73.8632   30.1274  -73.5260 H         1 UNK         0.0461 
     84 H84       -71.0421   33.0439  -73.5955 H         1 UNK         0.3453 
     85 H85       -70.7454   31.4832  -74.3231 H         1 UNK         0.3453 
     86 H86       -71.4884   28.7125  -74.2670 H         1 UNK         0.2984 
     87 H87       -72.3389   28.8655  -77.6793 H         1 UNK         0.0554 
     88 H88       -69.9337   29.1868  -78.1757 H         1 UNK         0.0847 
     89 H89       -69.6517   29.8041  -76.5483 H         1 UNK         0.0847 
     90 H90       -70.6657   30.6992  -77.6678 H         1 UNK         0.0847 
     91 H91       -71.8047   26.8597  -77.0912 H         1 UNK         0.3141 
     92 H92       -69.2896   25.4199  -76.2277 H         1 UNK         0.0743 
     93 H93       -70.6337   25.1575  -73.4925 H         1 UNK         0.0784 
     94 H94       -69.6442   23.9063  -74.2464 H         1 UNK         0.0784 
     95 H95       -68.9344   25.4523  -73.8139 H         1 UNK         0.0784 
     96 H96       -70.9735   24.3889  -77.1867 H         1 UNK         0.3213 
     97 H97       -72.8434   23.4884  -77.7050 H         1 UNK         0.0855 
     98 H98       -74.6156   22.7871  -75.3028 H         1 UNK         0.0814 
     99 H99       -73.2213   21.8603  -75.8404 H         1 UNK         0.0814 
    100 H100      -74.6369   21.9886  -76.8744 H         1 UNK         0.0814 
    101 H101      -75.4363   24.4041  -77.0094 H         1 UNK         0.3105 
    102 H102      -75.2270   27.7059  -78.3966 H         1 UNK         0.0547 
    103 H103      -75.7850   26.1907  -80.2764 H         1 UNK         0.0837 
    104 H104      -76.7381   25.1677  -79.2138 H         1 UNK         0.0837 
    105 H105      -77.2569   26.8187  -79.5510 H         1 UNK         0.0837 
    106 H106      -77.3876   26.4615  -77.0891 H         1 UNK         0.3020 
    107 H107      -76.5285   27.3731  -73.7282 H         1 UNK         0.1245 
    108 H108      -78.9386   28.2343  -74.0613 H         1 UNK         0.0781 
    109 H109      -78.5688   28.4620  -75.7425 H         1 UNK         0.0781 
    110 H110      -79.0084   30.4690  -72.6309 H         1 UNK         0.0836 
    111 H111      -77.4945   31.2732  -72.2948 H         1 UNK         0.0836 
    112 H112      -78.4789   25.8102  -75.3170 H         1 UNK         0.3022 
    113 H113      -77.0013   22.8210  -74.5530 H         1 UNK         0.0747 
    114 H114      -78.8483   21.8525  -73.3104 H         1 UNK         0.0793 
    115 H115      -77.9774   22.9315  -72.2347 H         1 UNK         0.0793 
    116 H116      -79.5142   23.4311  -72.9247 H         1 UNK         0.0793 
    117 H117      -79.7115   23.6412  -75.3316 H         1 UNK         0.3047 
    118 H118      -78.8387   24.0489  -78.7612 H         1 UNK         0.0822 
    119 H119      -80.5292   22.2836  -79.1620 H         1 UNK         0.0807 
    120 H120      -80.3954   21.7317  -77.4914 H         1 UNK         0.0807 
    121 H121      -79.0350   21.5605  -78.5921 H         1 UNK         0.0807 
    122 H122      -81.3787   24.0399  -77.5301 H         1 UNK         0.2946 
    123 H123      -81.6800   27.4160  -77.3327 H         1 UNK         0.1144 
    124 H124      -83.0245   25.4586  -78.1338 H         1 UNK         0.0793 
    125 H125      -83.8305   26.3055  -76.8301 H         1 UNK         0.0793 
    126 H126      -83.0269   24.7779  -76.5056 H         1 UNK         0.0793 
    127 H127      -81.8465   27.8198  -75.1296 H         1 UNK         0.2896 
@<TRIPOS>BOND
     1    1    2 1    
     2    1   67 1    
     3    1   68 1    
     4    1   69 1    
     5    2    3 2    
     6    2    4 am   BACKBONE|DICT|INTERRES
     7    4    5 1    
     8    4   70 1    
     9    5    6 1    
    10    5   65 1    
    11    5   71 1    
    12    6    7 1    
    13    6   72 1    
    14    6   73 1    
    15    7    8 1    
    16    8    9 1    
    17    8   74 1    
    18    8   75 1    
    19    9   10 ar   
    20    9   14 ar   
    21   10   11 ar   
    22   10   76 1    
    23   11   12 ar   
    24   11   48 1    
    25   12   13 ar   
    26   12   77 1    
    27   13   14 ar   
    28   13   15 1    
    29   14   78 1    
    30   15   16 1    
    31   15   79 1    
    32   15   80 1    
    33   16   17 1    
    34   17   18 1    
    35   17   81 1    
    36   17   82 1    
    37   18   19 1    
    38   18   22 1    
    39   18   83 1    
    40   19   20 am   BACKBONE|DICT|INTERRES
    41   19   21 2    
    42   20   84 1    
    43   20   85 1    
    44   22   23 am   BACKBONE|DICT|INTERRES
    45   22   86 1    
    46   23   24 2    
    47   23   25 1    
    48   25   26 1    
    49   25   27 1    
    50   25   87 1    
    51   26   88 1    
    52   26   89 1    
    53   26   90 1    
    54   27   28 am   BACKBONE|DICT|INTERRES
    55   27   91 1    
    56   28   29 2    
    57   28   30 1    
    58   30   31 1    
    59   30   32 1    
    60   30   92 1    
    61   31   93 1    
    62   31   94 1    
    63   31   95 1    
    64   32   33 am   BACKBONE|DICT|INTERRES
    65   32   96 1    
    66   33   34 2    
    67   33   35 1    
    68   35   36 1    
    69   35   37 1    
    70   35   97 1    
    71   36   98 1    
    72   36   99 1    
    73   36  100 1    
    74   37   38 am   BACKBONE|DICT|INTERRES
    75   37  101 1    
    76   38   39 2    
    77   38   40 1    
    78   40   41 1    
    79   40   42 1    
    80   40  102 1    
    81   41  103 1    
    82   41  104 1    
    83   41  105 1    
    84   42   43 am   BACKBONE|DICT|INTERRES
    85   42  106 1    
    86   43   44 2    
    87   43   45 1    
    88   45   46 1    
    89   45   49 1    
    90   45  107 1    
    91   46   47 1    
    92   46  108 1    
    93   46  109 1    
    94   47   48 1    
    95   48  110 1    
    96   48  111 1    
    97   49   50 am   BACKBONE|DICT|INTERRES
    98   49  112 1    
    99   50   51 2    
   100   50   52 1    
   101   52   53 1    
   102   52   54 1    
   103   52  113 1    
   104   53  114 1    
   105   53  115 1    
   106   53  116 1    
   107   54   55 am   BACKBONE|DICT|INTERRES
   108   54  117 1    
   109   55   56 2    
   110   55   57 1    
   111   57   58 1    
   112   57   59 1    
   113   57  118 1    
   114   58  119 1    
   115   58  120 1    
   116   58  121 1    
   117   59   60 am   BACKBONE|DICT|INTERRES
   118   59  122 1    
   119   60   61 2    
   120   60   62 1    
   121   62   63 1    
   122   62   64 1    
   123   62  123 1    
   124   63  124 1    
   125   63  125 1    
   126   63  126 1    
   127   64   65 am   BACKBONE|DICT|INTERRES
   128   64  127 1    
   129   65   66 2    
@<TRIPOS>SUBSTRUCTURE
     1 UNK         1 GROUP             0       ****    0 ROOT    
