@<TRIPOS>MOLECULE
3R135
127   129    1
SMALL
USER_CHARGES


@<TRIPOS>ATOM
      1 CA        -83.1064   28.7118  -70.4465 C.3       0 UNK        -0.1998 
      2 C         -83.6633   28.2483  -71.7841 C.2       0 UNK         0.4909 
      3 O         -84.6938   27.5758  -71.8206 O.2       0 UNK        -0.5240 
      4 N         -82.9852   28.6003  -72.8845 N.am      1 UNK        -0.4739 
      5 CA        -83.3513   28.2272  -74.2585 C.3       1 UNK         0.0864 
      6 C6        -82.7405   29.2090  -75.2954 C.3       11 UNK        -0.0881 
      7 S7        -80.9290   29.0893  -75.5009 S.3       11 UNK        -0.2682 
      8 C8        -80.3010   30.2516  -74.2483 C.3       11 UNK         0.0289 
      9 C9        -79.0524   29.7003  -73.5731 C.ar      11 UNK        -0.0687 
     10 C10       -79.1366   28.5605  -72.7659 C.ar      11 UNK        -0.0823 
     11 C11       -77.9974   28.0431  -72.1449 C.ar      11 UNK        -0.0830 
     12 C12       -76.7712   28.6825  -72.3259 C.ar      11 UNK        -0.1021 
     13 C13       -76.6623   29.8113  -73.1424 C.ar      11 UNK        -0.0753 
     14 C14       -77.8115   30.3187  -73.7595 C.ar      11 UNK        -0.0933 
     15 C15       -75.3029   30.4423  -73.4249 C.3       11 UNK         0.0166 
     16 S16       -74.3822   30.9194  -71.9243 S.3       11 UNK        -0.2615 
     17 C17       -73.3129   29.4664  -71.6092 C.3       11 UNK        -0.0865 
     18 CA        -71.9306   29.5815  -72.3040 C.3       10 UNK         0.0862 
     19 C         -70.8861   28.5868  -71.7138 C.2       10 UNK         0.5551 
     20 N         -70.1025   27.8755  -72.5170 N.am      10 UNK        -0.7319 
     21 O         -70.7688   28.4677  -70.4967 O.2       10 UNK        -0.5018 
     22 N         -72.0759   29.4609  -73.7612 N.am      10 UNK        -0.4509 
     23 C         -71.4427   30.2122  -74.6675 C.2       10 UNK         0.4899 
     24 O         -70.6957   31.1507  -74.3850 O.2       10 UNK        -0.4839 
     25 CA        -71.6836   29.8294  -76.1409 C.3       9 UNK         0.0222 
     26 CB        -70.6678   30.4779  -77.1047 C.3       9 UNK        -0.1966 
     27 N         -71.7444   28.3773  -76.3563 N.am      9 UNK        -0.4218 
     28 C         -70.7949   27.4716  -76.0652 C.2       9 UNK         0.5020 
     29 O         -69.7230   27.7612  -75.5314 O.2       9 UNK        -0.5274 
     30 CA        -71.0784   25.9875  -76.3760 C.3       8 UNK         0.0270 
     31 CB        -71.0729   25.1582  -75.0799 C.3       8 UNK        -0.1976 
     32 N         -72.3419   25.7540  -77.0772 N.am      8 UNK        -0.4313 
     33 C         -72.5892   26.0495  -78.3598 C.2       8 UNK         0.5041 
     34 O         -71.7411   26.4797  -79.1416 O.2       8 UNK        -0.5577 
     35 CA        -74.0450   25.8899  -78.8307 C.3       7 UNK         0.0284 
     36 CB        -74.3038   24.4608  -79.3339 C.3       7 UNK        -0.1958 
     37 N         -75.0190   26.2347  -77.7878 N.am      7 UNK        -0.4454 
     38 C         -75.1930   27.4650  -77.2812 C.2       7 UNK         0.5089 
     39 O         -74.5508   28.4508  -77.6419 O.2       7 UNK        -0.5125 
     40 CA        -76.2244   27.6083  -76.1515 C.3       6 UNK         0.0408 
     41 CB        -77.6503   27.6659  -76.7142 C.3       6 UNK        -0.1791 
     42 N         -76.1352   26.5239  -75.1755 N.am      6 UNK        -0.4762 
     43 C         -75.1116   26.3325  -74.3311 C.2       6 UNK         0.5007 
     44 O         -74.1417   27.0895  -74.2393 O.2       6 UNK        -0.5032 
     45 CA        -75.1497   25.0328  -73.4996 C.3       5 UNK         0.0783 
     46 C46       -75.8658   25.2057  -72.1353 C.3       11 UNK        -0.0857 
     47 S47       -77.6913   25.2880  -72.2333 S.3       11 UNK        -0.2512 
     48 C48       -78.0874   26.7920  -71.2844 C.3       11 UNK         0.0225 
     49 N         -75.6682   23.8908  -74.2659 N.am      5 UNK        -0.4615 
     50 C         -75.0814   23.3757  -75.3524 C.2       4 UNK         0.5053 
     51 O         -74.0367   23.8180  -75.8269 O.2       4 UNK        -0.5105 
     52 CA        -75.7761   22.2020  -76.0600 C.3       4 UNK         0.0263 
     53 CB        -75.6031   20.8869  -75.2744 C.3       4 UNK        -0.1981 
     54 N         -77.1790   22.4581  -76.4176 N.am      4 UNK        -0.4224 
     55 C         -78.2428   22.5677  -75.6097 C.2       3 UNK         0.4895 
     56 O         -78.1899   22.4772  -74.3810 O.2       3 UNK        -0.5091 
     57 CA        -79.5941   22.7741  -76.3182 C.3       3 UNK         0.0250 
     58 CB        -80.0597   21.4666  -76.9832 C.3       3 UNK        -0.1996 
     59 N         -80.6383   23.2230  -75.3966 N.am      3 UNK        -0.4254 
     60 C         -80.7500   24.4651  -74.9110 C.2       2 UNK         0.5004 
     61 O         -80.0111   25.3986  -75.2323 O.2       2 UNK        -0.5226 
     62 CA        -81.8693   24.6706  -73.8752 C.3       2 UNK         0.0269 
     63 CB        -81.4343   24.1567  -72.4924 C.3       2 UNK        -0.1926 
     64 N         -82.2591   26.0736  -73.7456 N.am      2 UNK        -0.4687 
     65 C         -83.0630   26.7401  -74.5862 C.2       1 UNK         0.5165 
     66 O         -83.5938   26.2234  -75.5713 O.2       1 UNK        -0.5079 
     67 H67       -82.8879   27.8523  -69.8133 H         1 UNK         0.0900 
     68 H68       -82.1892   29.2889  -70.5628 H         1 UNK         0.0900 
     69 H69       -83.8368   29.3363  -69.9327 H         1 UNK         0.0900 
     70 H70       -82.1551   29.1662  -72.7962 H         1 UNK         0.2959 
     71 H71       -84.4363   28.3321  -74.3346 H         1 UNK         0.1079 
     72 H72       -83.1905   29.0277  -76.2733 H         1 UNK         0.0837 
     73 H73       -83.0074   30.2369  -75.0446 H         1 UNK         0.0837 
     74 H74       -80.0947   31.2078  -74.7316 H         1 UNK         0.0685 
     75 H75       -81.0557   30.4537  -73.4891 H         1 UNK         0.0685 
     76 H76       -80.0862   28.0627  -72.6375 H         1 UNK         0.1434 
     77 H77       -75.8978   28.2792  -71.8442 H         1 UNK         0.1329 
     78 H78       -77.7381   31.1863  -74.4007 H         1 UNK         0.1335 
     79 H79       -74.7132   29.7525  -74.0262 H         1 UNK         0.0680 
     80 H80       -75.4249   31.3387  -74.0344 H         1 UNK         0.0680 
     81 H81       -73.1983   29.3986  -70.5259 H         1 UNK         0.1032 
     82 H82       -73.7997   28.5423  -71.9152 H         1 UNK         0.1032 
     83 H83       -71.5336   30.5700  -72.0663 H         1 UNK         0.0461 
     84 H84       -70.1349   27.9916  -73.5227 H         1 UNK         0.3453 
     85 H85       -69.4296   27.2466  -72.1092 H         1 UNK         0.3453 
     86 H86       -72.6518   28.6900  -74.0806 H         1 UNK         0.2984 
     87 H87       -72.6720   30.2148  -76.3951 H         1 UNK         0.0554 
     88 H88       -70.7058   31.5659  -77.0406 H         1 UNK         0.0847 
     89 H89       -70.8767   30.2084  -78.1400 H         1 UNK         0.0847 
     90 H90       -69.6451   30.1742  -76.8787 H         1 UNK         0.0847 
     91 H91       -72.6060   28.0450  -76.7738 H         1 UNK         0.3141 
     92 H92       -70.2663   25.6319  -77.0132 H         1 UNK         0.0743 
     93 H93       -71.8509   25.4862  -74.3900 H         1 UNK         0.0784 
     94 H94       -71.2311   24.0992  -75.2847 H         1 UNK         0.0784 
     95 H95       -70.1183   25.2464  -74.5594 H         1 UNK         0.0784 
     96 H96       -73.0801   25.3069  -76.5381 H         1 UNK         0.3213 
     97 H97       -74.1970   26.5774  -79.6658 H         1 UNK         0.0855 
     98 H98       -74.1505   23.7192  -78.5500 H         1 UNK         0.0814 
     99 H99       -73.6262   24.2105  -80.1513 H         1 UNK         0.0814 
    100 H100      -75.3200   24.3487  -79.7122 H         1 UNK         0.0814 
    101 H101      -75.5638   25.4790  -77.4016 H         1 UNK         0.3105 
    102 H102      -76.0274   28.5480  -75.6350 H         1 UNK         0.0547 
    103 H103      -77.7733   28.5155  -77.3869 H         1 UNK         0.0837 
    104 H104      -77.9111   26.7638  -77.2686 H         1 UNK         0.0837 
    105 H105      -78.3768   27.7795  -75.9104 H         1 UNK         0.0837 
    106 H106      -76.9088   25.8745  -75.1374 H         1 UNK         0.3020 
    107 H107      -74.1050   24.8027  -73.2776 H         1 UNK         0.1245 
    108 H108      -75.4709   26.0706  -71.6021 H         1 UNK         0.0781 
    109 H109      -75.6241   24.3511  -71.5018 H         1 UNK         0.0781 
    110 H110      -77.4299   26.8741  -70.4176 H         1 UNK         0.0836 
    111 H111      -79.0973   26.6916  -70.8841 H         1 UNK         0.0836 
    112 H112      -76.5557   23.4962  -73.9650 H         1 UNK         0.3022 
    113 H113      -75.2589   22.0682  -77.0114 H         1 UNK         0.0747 
    114 H114      -76.0406   20.0450  -75.8109 H         1 UNK         0.0793 
    115 H115      -74.5462   20.6619  -75.1253 H         1 UNK         0.0793 
    116 H116      -76.0638   20.9306  -74.2872 H         1 UNK         0.0793 
    117 H117      -77.3452   22.5522  -77.4104 H         1 UNK         0.3047 
    118 H118      -79.4647   23.5361  -77.0902 H         1 UNK         0.0822 
    119 H119      -79.3383   21.1174  -77.7230 H         1 UNK         0.0807 
    120 H120      -81.0087   21.6018  -77.5027 H         1 UNK         0.0807 
    121 H121      -80.1884   20.6663  -76.2530 H         1 UNK         0.0807 
    122 H122      -81.2539   22.5065  -75.0404 H         1 UNK         0.2946 
    123 H123      -82.7422   24.0997  -74.2009 H         1 UNK         0.1144 
    124 H124      -82.2500   24.2196  -71.7718 H         1 UNK         0.0793 
    125 H125      -80.5948   24.7281  -72.0973 H         1 UNK         0.0793 
    126 H126      -81.1224   23.1123  -72.5368 H         1 UNK         0.0793 
    127 H127      -81.8491   26.5873  -72.9821 H         1 UNK         0.2896 
@<TRIPOS>BOND
     1    1    2 1    
     2    1   67 1    
     3    1   68 1    
     4    1   69 1    
     5    2    3 2    
     6    2    4 am   BACKBONE|DICT|INTERRES
     7    4    5 1    
     8    4   70 1    
     9    5    6 1    
    10    5   65 1    
    11    5   71 1    
    12    6    7 1    
    13    6   72 1    
    14    6   73 1    
    15    7    8 1    
    16    8    9 1    
    17    8   74 1    
    18    8   75 1    
    19    9   10 ar   
    20    9   14 ar   
    21   10   11 ar   
    22   10   76 1    
    23   11   12 ar   
    24   11   48 1    
    25   12   13 ar   
    26   12   77 1    
    27   13   14 ar   
    28   13   15 1    
    29   14   78 1    
    30   15   16 1    
    31   15   79 1    
    32   15   80 1    
    33   16   17 1    
    34   17   18 1    
    35   17   81 1    
    36   17   82 1    
    37   18   19 1    
    38   18   22 1    
    39   18   83 1    
    40   19   20 am   BACKBONE|DICT|INTERRES
    41   19   21 2    
    42   20   84 1    
    43   20   85 1    
    44   22   23 am   BACKBONE|DICT|INTERRES
    45   22   86 1    
    46   23   24 2    
    47   23   25 1    
    48   25   26 1    
    49   25   27 1    
    50   25   87 1    
    51   26   88 1    
    52   26   89 1    
    53   26   90 1    
    54   27   28 am   BACKBONE|DICT|INTERRES
    55   27   91 1    
    56   28   29 2    
    57   28   30 1    
    58   30   31 1    
    59   30   32 1    
    60   30   92 1    
    61   31   93 1    
    62   31   94 1    
    63   31   95 1    
    64   32   33 am   BACKBONE|DICT|INTERRES
    65   32   96 1    
    66   33   34 2    
    67   33   35 1    
    68   35   36 1    
    69   35   37 1    
    70   35   97 1    
    71   36   98 1    
    72   36   99 1    
    73   36  100 1    
    74   37   38 am   BACKBONE|DICT|INTERRES
    75   37  101 1    
    76   38   39 2    
    77   38   40 1    
    78   40   41 1    
    79   40   42 1    
    80   40  102 1    
    81   41  103 1    
    82   41  104 1    
    83   41  105 1    
    84   42   43 am   BACKBONE|DICT|INTERRES
    85   42  106 1    
    86   43   44 2    
    87   43   45 1    
    88   45   46 1    
    89   45   49 1    
    90   45  107 1    
    91   46   47 1    
    92   46  108 1    
    93   46  109 1    
    94   47   48 1    
    95   48  110 1    
    96   48  111 1    
    97   49   50 am   BACKBONE|DICT|INTERRES
    98   49  112 1    
    99   50   51 2    
   100   50   52 1    
   101   52   53 1    
   102   52   54 1    
   103   52  113 1    
   104   53  114 1    
   105   53  115 1    
   106   53  116 1    
   107   54   55 am   BACKBONE|DICT|INTERRES
   108   54  117 1    
   109   55   56 2    
   110   55   57 1    
   111   57   58 1    
   112   57   59 1    
   113   57  118 1    
   114   58  119 1    
   115   58  120 1    
   116   58  121 1    
   117   59   60 am   BACKBONE|DICT|INTERRES
   118   59  122 1    
   119   60   61 2    
   120   60   62 1    
   121   62   63 1    
   122   62   64 1    
   123   62  123 1    
   124   63  124 1    
   125   63  125 1    
   126   63  126 1    
   127   64   65 am   BACKBONE|DICT|INTERRES
   128   64  127 1    
   129   65   66 2    
@<TRIPOS>SUBSTRUCTURE
     1 UNK         1 GROUP             0       ****    0 ROOT    
