@<TRIPOS>MOLECULE
3R135
127   129    1
SMALL
USER_CHARGES


@<TRIPOS>ATOM
      1 CA        -85.5256   28.8620  -74.5869 C.3       0 UNK        -0.1998 
      2 C         -84.1157   28.3124  -74.7436 C.2       0 UNK         0.4909 
      3 O         -83.8600   27.1834  -74.3287 O.2       0 UNK        -0.5240 
      4 N         -83.2233   29.0988  -75.3632 N.am      1 UNK        -0.4739 
      5 CA        -81.7846   28.8926  -75.6214 C.3       1 UNK         0.0864 
      6 C6        -80.8955   28.9991  -74.3481 C.3       11 UNK        -0.0881 
      7 S7        -80.7373   27.4793  -73.3401 S.3       11 UNK        -0.2682 
      8 C8        -80.5020   28.1541  -71.6677 C.3       11 UNK         0.0289 
      9 C9        -79.0322   28.3733  -71.3314 C.ar      11 UNK        -0.0687 
     10 C10       -78.3426   27.4241  -70.5681 C.ar      11 UNK        -0.0823 
     11 C11       -77.0183   27.6508  -70.1805 C.ar      11 UNK        -0.0830 
     12 C12       -76.3881   28.8361  -70.5598 C.ar      11 UNK        -0.1021 
     13 C13       -77.0449   29.7725  -71.3620 C.ar      11 UNK        -0.0753 
     14 C14       -78.3722   29.5383  -71.7401 C.ar      11 UNK        -0.0933 
     15 C15       -76.3247   31.0451  -71.7911 C.3       11 UNK         0.0166 
     16 S16       -75.1716   30.7549  -73.1747 S.3       11 UNK        -0.2615 
     17 C17       -73.8075   29.8597  -72.3480 C.3       11 UNK        -0.0865 
     18 CA        -72.4231   30.0793  -73.0105 C.3       10 UNK         0.0862 
     19 C         -71.2807   29.4168  -72.1816 C.2       10 UNK         0.5551 
     20 N         -70.4159   28.5895  -72.7590 N.am      10 UNK        -0.7319 
     21 O         -71.1666   29.6729  -70.9854 O.2       10 UNK        -0.5018 
     22 N         -72.4270   29.6969  -74.4301 N.am      10 UNK        -0.4509 
     23 C         -71.6302   30.2376  -75.3592 C.2       10 UNK         0.4899 
     24 O         -70.8488   31.1644  -75.1369 O.2       10 UNK        -0.4839 
     25 CA        -71.7230   29.6306  -76.7701 C.3       9 UNK         0.0222 
     26 CB        -70.5717   30.0758  -77.6974 C.3       9 UNK        -0.1966 
     27 N         -71.8475   28.1682  -76.7603 N.am      9 UNK        -0.4218 
     28 C         -70.9715   27.2701  -76.2809 C.2       9 UNK         0.5020 
     29 O         -69.9322   27.5882  -75.7004 O.2       9 UNK        -0.5274 
     30 CA        -71.2937   25.7680  -76.4605 C.3       8 UNK         0.0270 
     31 CB        -70.9989   24.9709  -75.1767 C.3       8 UNK        -0.1976 
     32 N         -72.6734   25.5010  -76.8758 N.am      8 UNK        -0.4313 
     33 C         -73.1679   25.6565  -78.1118 C.2       8 UNK         0.5041 
     34 O         -72.4808   25.9437  -79.0919 O.2       8 UNK        -0.5577 
     35 CA        -74.6969   25.5474  -78.2660 C.3       7 UNK         0.0284 
     36 CB        -75.1003   24.1148  -78.6443 C.3       7 UNK        -0.1958 
     37 N         -75.4270   25.9745  -77.0646 N.am      7 UNK        -0.4454 
     38 C         -75.3878   27.2137  -76.5506 C.2       7 UNK         0.5089 
     39 O         -74.7775   28.1465  -77.0721 O.2       7 UNK        -0.5125 
     40 CA        -76.0919   27.4440  -75.2062 C.3       6 UNK         0.0408 
     41 CB        -77.5672   27.7973  -75.4040 C.3       6 UNK        -0.1791 
     42 N         -75.9870   26.2918  -74.3137 N.am      6 UNK        -0.4762 
     43 C         -74.8847   25.9705  -73.6234 C.2       6 UNK         0.5007 
     44 O         -73.8369   26.6154  -73.6750 O.2       6 UNK        -0.5032 
     45 CA        -74.9551   24.6741  -72.7850 C.3       5 UNK         0.0783 
     46 C46       -75.7290   24.8709  -71.4580 C.3       11 UNK        -0.0857 
     47 S47       -74.8560   25.9013  -70.2364 S.3       11 UNK        -0.2512 
     48 C48       -76.2630   26.6335  -69.3353 C.3       11 UNK         0.0225 
     49 N         -75.5525   23.5717  -73.5420 N.am      5 UNK        -0.4615 
     50 C         -75.0961   23.0620  -74.6928 C.2       4 UNK         0.5053 
     51 O         -74.0512   23.4156  -75.2364 O.2       4 UNK        -0.5105 
     52 CA        -75.9948   22.0124  -75.3727 C.3       4 UNK         0.0263 
     53 CB        -75.6249   20.5997  -74.8945 C.3       4 UNK        -0.1981 
     54 N         -77.4301   22.2444  -75.1590 N.am      4 UNK        -0.4224 
     55 C         -78.0932   23.3456  -75.5404 C.2       3 UNK         0.4895 
     56 O         -77.5691   24.2980  -76.1240 O.2       3 UNK        -0.5091 
     57 CA        -79.5694   23.4233  -75.1441 C.3       3 UNK         0.0250 
     58 CB        -79.7111   23.8693  -73.6770 C.3       3 UNK        -0.1996 
     59 N         -80.2460   24.3806  -76.0158 N.am      3 UNK        -0.4254 
     60 C         -81.5302   24.3144  -76.3811 C.2       2 UNK         0.5004 
     61 O         -82.3121   23.4490  -75.9807 O.2       2 UNK        -0.5226 
     62 CA        -82.0243   25.4184  -77.3270 C.3       2 UNK         0.0269 
     63 CB        -83.3509   25.0530  -78.0194 C.3       2 UNK        -0.1926 
     64 N         -82.2235   26.6402  -76.5537 N.am      2 UNK        -0.4687 
     65 C         -81.4134   27.7025  -76.5419 C.2       1 UNK         0.5165 
     66 O         -80.4058   27.7841  -77.2455 O.2       1 UNK        -0.5079 
     67 H67       -85.7953   28.9034  -73.5319 H         1 UNK         0.0900 
     68 H68       -86.2391   28.2143  -75.0957 H         1 UNK         0.0900 
     69 H69       -85.6232   29.8654  -75.0009 H         1 UNK         0.0900 
     70 H70       -83.5624   29.9878  -75.7051 H         1 UNK         0.2959 
     71 H71       -81.5268   29.7655  -76.2241 H         1 UNK         0.1079 
     72 H72       -81.2691   29.8094  -73.7211 H         1 UNK         0.0837 
     73 H73       -79.8925   29.3109  -74.6382 H         1 UNK         0.0837 
     74 H74       -80.9429   27.4542  -70.9563 H         1 UNK         0.0685 
     75 H75       -81.0593   29.0839  -71.5478 H         1 UNK         0.0685 
     76 H76       -78.8452   26.5173  -70.2602 H         1 UNK         0.1434 
     77 H77       -75.3738   29.0153  -70.2355 H         1 UNK         0.1329 
     78 H78       -78.8981   30.2687  -72.3392 H         1 UNK         0.1335 
     79 H79       -77.0507   31.7984  -72.1006 H         1 UNK         0.0680 
     80 H80       -75.7874   31.4753  -70.9447 H         1 UNK         0.0680 
     81 H81       -73.7632   30.1953  -71.3108 H         1 UNK         0.1032 
     82 H82       -74.0543   28.7981  -72.3161 H         1 UNK         0.1032 
     83 H83       -72.2252   31.1518  -72.9592 H         1 UNK         0.0461 
     84 H84       -69.6836   28.1797  -72.2020 H         1 UNK         0.3453 
     85 H85       -70.4667   28.3866  -73.7490 H         1 UNK         0.3453 
     86 H86       -73.0208   28.9181  -74.6786 H         1 UNK         0.2984 
     87 H87       -72.6520   30.0089  -77.1989 H         1 UNK         0.0554 
     88 H88       -70.6776   29.6485  -78.6946 H         1 UNK         0.0847 
     89 H89       -69.5981   29.7782  -77.3064 H         1 UNK         0.0847 
     90 H90       -70.5578   31.1604  -77.8112 H         1 UNK         0.0847 
     91 H91       -72.7149   27.8206  -77.1540 H         1 UNK         0.3141 
     92 H92       -70.6273   25.3979  -77.2421 H         1 UNK         0.0743 
     93 H93       -69.9510   25.0603  -74.8876 H         1 UNK         0.0784 
     94 H94       -71.5992   25.3225  -74.3374 H         1 UNK         0.0784 
     95 H95       -71.2047   23.9089  -75.3128 H         1 UNK         0.0784 
     96 H96       -73.3074   25.1883  -76.1478 H         1 UNK         0.3213 
     97 H97       -74.9962   26.2119  -79.0794 H         1 UNK         0.0855 
     98 H98       -74.7138   23.3893  -77.9301 H         1 UNK         0.0814 
     99 H99       -74.6979   23.8471  -79.6220 H         1 UNK         0.0814 
    100 H100      -76.1834   24.0005  -78.6951 H         1 UNK         0.0814 
    101 H101      -76.0203   25.2838  -76.6108 H         1 UNK         0.3105 
    102 H102      -75.6090   28.2951  -74.7237 H         1 UNK         0.0547 
    103 H103      -78.0276   28.0247  -74.4441 H         1 UNK         0.0837 
    104 H104      -77.6812   28.6755  -76.0405 H         1 UNK         0.0837 
    105 H105      -78.1264   26.9822  -75.8634 H         1 UNK         0.0837 
    106 H106      -76.7837   25.6725  -74.2791 H         1 UNK         0.3020 
    107 H107      -73.9279   24.3841  -72.5519 H         1 UNK         0.1245 
    108 H108      -75.8971   23.9043  -70.9801 H         1 UNK         0.0781 
    109 H109      -76.7215   25.2802  -71.6539 H         1 UNK         0.0781 
    110 H110      -75.8876   27.1268  -68.4375 H         1 UNK         0.0836 
    111 H111      -76.9257   25.8377  -68.9916 H         1 UNK         0.0836 
    112 H112      -76.4151   23.1978  -73.1768 H         1 UNK         0.3022 
    113 H113      -75.8129   22.0630  -76.4465 H         1 UNK         0.0747 
    114 H114      -76.1890   19.8376  -75.4327 H         1 UNK         0.0793 
    115 H115      -74.5666   20.3959  -75.0644 H         1 UNK         0.0793 
    116 H116      -75.8147   20.4691  -73.8283 H         1 UNK         0.0793 
    117 H117      -77.9378   21.5132  -74.6811 H         1 UNK         0.3047 
    118 H118      -80.0124   22.4334  -75.2740 H         1 UNK         0.0822 
    119 H119      -79.2593   23.1465  -72.9969 H         1 UNK         0.0807 
    120 H120      -80.7589   23.9680  -73.3922 H         1 UNK         0.0807 
    121 H121      -79.2293   24.8319  -73.5007 H         1 UNK         0.0807 
    122 H122      -79.6454   25.0978  -76.4035 H         1 UNK         0.2946 
    123 H123      -81.2679   25.5645  -78.1019 H         1 UNK         0.1144 
    124 H124      -83.2532   24.1255  -78.5851 H         1 UNK         0.0793 
    125 H125      -83.6563   25.8298  -78.7205 H         1 UNK         0.0793 
    126 H126      -84.1603   24.9158  -77.3010 H         1 UNK         0.0793 
    127 H127      -82.9644   26.6264  -75.8559 H         1 UNK         0.2896 
@<TRIPOS>BOND
     1    1    2 1    
     2    1   67 1    
     3    1   68 1    
     4    1   69 1    
     5    2    3 2    
     6    2    4 am   BACKBONE|DICT|INTERRES
     7    4    5 1    
     8    4   70 1    
     9    5    6 1    
    10    5   65 1    
    11    5   71 1    
    12    6    7 1    
    13    6   72 1    
    14    6   73 1    
    15    7    8 1    
    16    8    9 1    
    17    8   74 1    
    18    8   75 1    
    19    9   10 ar   
    20    9   14 ar   
    21   10   11 ar   
    22   10   76 1    
    23   11   12 ar   
    24   11   48 1    
    25   12   13 ar   
    26   12   77 1    
    27   13   14 ar   
    28   13   15 1    
    29   14   78 1    
    30   15   16 1    
    31   15   79 1    
    32   15   80 1    
    33   16   17 1    
    34   17   18 1    
    35   17   81 1    
    36   17   82 1    
    37   18   19 1    
    38   18   22 1    
    39   18   83 1    
    40   19   20 am   BACKBONE|DICT|INTERRES
    41   19   21 2    
    42   20   84 1    
    43   20   85 1    
    44   22   23 am   BACKBONE|DICT|INTERRES
    45   22   86 1    
    46   23   24 2    
    47   23   25 1    
    48   25   26 1    
    49   25   27 1    
    50   25   87 1    
    51   26   88 1    
    52   26   89 1    
    53   26   90 1    
    54   27   28 am   BACKBONE|DICT|INTERRES
    55   27   91 1    
    56   28   29 2    
    57   28   30 1    
    58   30   31 1    
    59   30   32 1    
    60   30   92 1    
    61   31   93 1    
    62   31   94 1    
    63   31   95 1    
    64   32   33 am   BACKBONE|DICT|INTERRES
    65   32   96 1    
    66   33   34 2    
    67   33   35 1    
    68   35   36 1    
    69   35   37 1    
    70   35   97 1    
    71   36   98 1    
    72   36   99 1    
    73   36  100 1    
    74   37   38 am   BACKBONE|DICT|INTERRES
    75   37  101 1    
    76   38   39 2    
    77   38   40 1    
    78   40   41 1    
    79   40   42 1    
    80   40  102 1    
    81   41  103 1    
    82   41  104 1    
    83   41  105 1    
    84   42   43 am   BACKBONE|DICT|INTERRES
    85   42  106 1    
    86   43   44 2    
    87   43   45 1    
    88   45   46 1    
    89   45   49 1    
    90   45  107 1    
    91   46   47 1    
    92   46  108 1    
    93   46  109 1    
    94   47   48 1    
    95   48  110 1    
    96   48  111 1    
    97   49   50 am   BACKBONE|DICT|INTERRES
    98   49  112 1    
    99   50   51 2    
   100   50   52 1    
   101   52   53 1    
   102   52   54 1    
   103   52  113 1    
   104   53  114 1    
   105   53  115 1    
   106   53  116 1    
   107   54   55 am   BACKBONE|DICT|INTERRES
   108   54  117 1    
   109   55   56 2    
   110   55   57 1    
   111   57   58 1    
   112   57   59 1    
   113   57  118 1    
   114   58  119 1    
   115   58  120 1    
   116   58  121 1    
   117   59   60 am   BACKBONE|DICT|INTERRES
   118   59  122 1    
   119   60   61 2    
   120   60   62 1    
   121   62   63 1    
   122   62   64 1    
   123   62  123 1    
   124   63  124 1    
   125   63  125 1    
   126   63  126 1    
   127   64   65 am   BACKBONE|DICT|INTERRES
   128   64  127 1    
   129   65   66 2    
@<TRIPOS>SUBSTRUCTURE
     1 UNK         1 GROUP             0       ****    0 ROOT    
