@<TRIPOS>MOLECULE
3R135
127   129    1
SMALL
USER_CHARGES


@<TRIPOS>ATOM
      1 CA        -84.8736   30.5768  -74.5149 C.3       0 UNK        -0.1998 
      2 C         -83.8398   29.4711  -74.3572 C.2       0 UNK         0.4909 
      3 O         -84.1786   28.4002  -73.8535 O.2       0 UNK        -0.5240 
      4 N         -82.5976   29.7407  -74.7888 N.am      1 UNK        -0.4739 
      5 CA        -81.4091   28.8728  -74.7706 C.3       1 UNK         0.0864 
      6 C6        -80.5660   28.9741  -73.4648 C.3       11 UNK        -0.0881 
      7 S7        -81.3869   28.4386  -71.9229 S.3       11 UNK        -0.2682 
      8 C8        -80.3961   29.3156  -70.6749 C.3       11 UNK         0.0289 
      9 C9        -78.9446   28.8568  -70.6733 C.ar      11 UNK        -0.0687 
     10 C10       -78.6120   27.5818  -70.2067 C.ar      11 UNK        -0.0823 
     11 C11       -77.2795   27.1592  -70.1788 C.ar      11 UNK        -0.0830 
     12 C12       -76.2740   28.0299  -70.6146 C.ar      11 UNK        -0.1021 
     13 C13       -76.5950   29.3050  -71.0877 C.ar      11 UNK        -0.0753 
     14 C14       -77.9322   29.7117  -71.1188 C.ar      11 UNK        -0.0933 
     15 C15       -75.4992   30.2581  -71.5362 C.3       11 UNK         0.0166 
     16 S16       -75.1542   30.0940  -73.3148 S.3       11 UNK        -0.2615 
     17 C17       -74.1772   31.6132  -73.6042 C.3       11 UNK        -0.0865 
     18 CA        -72.6695   31.3766  -73.8831 C.3       10 UNK         0.0862 
     19 C         -71.8731   30.8971  -72.6323 C.2       10 UNK         0.5551 
     20 N         -70.9984   29.9027  -72.7350 N.am      10 UNK        -0.7319 
     21 O         -72.0370   31.4527  -71.5489 O.2       10 UNK        -0.5018 
     22 N         -72.4727   30.5532  -75.0839 N.am      10 UNK        -0.4509 
     23 C         -71.4747   30.6975  -75.9624 C.2       10 UNK         0.4899 
     24 O         -70.6311   31.5941  -75.9073 O.2       10 UNK        -0.4839 
     25 CA        -71.4139   29.6366  -77.0754 C.3       9 UNK         0.0222 
     26 CB        -70.1605   29.7618  -77.9679 C.3       9 UNK        -0.1966 
     27 N         -71.5503   28.2721  -76.5505 N.am      9 UNK        -0.4218 
     28 C         -70.7389   27.6485  -75.6786 C.2       9 UNK         0.5020 
     29 O         -69.7590   28.1860  -75.1606 O.2       9 UNK        -0.5274 
     30 CA        -71.0716   26.1948  -75.2797 C.3       8 UNK         0.0270 
     31 CB        -71.3246   26.0998  -73.7649 C.3       8 UNK        -0.1976 
     32 N         -72.2193   25.6314  -75.9976 N.am      8 UNK        -0.4313 
     33 C         -72.2034   25.2459  -77.2839 C.2       8 UNK         0.5041 
     34 O         -71.1780   25.2123  -77.9651 O.2       8 UNK        -0.5577 
     35 CA        -73.5463   24.8736  -77.9486 C.3       7 UNK         0.0284 
     36 CB        -73.6724   23.3460  -78.0693 C.3       7 UNK        -0.1958 
     37 N         -74.7366   25.3994  -77.2711 N.am      7 UNK        -0.4454 
     38 C         -74.9855   26.6872  -76.9878 C.2       7 UNK         0.5089 
     39 O         -74.2782   27.6193  -77.3713 O.2       7 UNK        -0.5125 
     40 CA        -76.1676   26.9786  -76.0439 C.3       6 UNK         0.0408 
     41 CB        -77.4173   27.3741  -76.8430 C.3       6 UNK        -0.1791 
     42 N         -76.4931   25.8673  -75.1410 N.am      6 UNK        -0.4762 
     43 C         -75.6557   25.3245  -74.2420 C.2       6 UNK         0.5007 
     44 O         -74.4945   25.7017  -74.0877 O.2       6 UNK        -0.5032 
     45 CA        -76.1685   24.1142  -73.4416 C.3       5 UNK         0.0783 
     46 C46       -76.9781   24.5348  -72.1893 C.3       11 UNK        -0.0857 
     47 S47       -75.8724   24.8150  -70.7660 S.3       11 UNK        -0.2512 
     48 C48       -76.9343   25.7756  -69.6415 C.3       11 UNK         0.0225 
     49 N         -76.9247   23.2118  -74.3128 N.am      5 UNK        -0.4615 
     50 C         -76.3983   22.1389  -74.9200 C.2       4 UNK         0.5053 
     51 O         -75.2323   21.7723  -74.7729 O.2       4 UNK        -0.5105 
     52 CA        -77.3155   21.3255  -75.8512 C.3       4 UNK         0.0263 
     53 CB        -77.9471   20.1509  -75.0868 C.3       4 UNK        -0.1981 
     54 N         -78.3752   22.1154  -76.4807 N.am      4 UNK        -0.4224 
     55 C         -78.1702   23.1003  -77.3657 C.2       3 UNK         0.4895 
     56 O         -77.0587   23.4560  -77.7564 O.2       3 UNK        -0.5091 
     57 CA        -79.4192   23.8454  -77.8651 C.3       3 UNK         0.0250 
     58 CB        -80.0468   23.1008  -79.0544 C.3       3 UNK        -0.1996 
     59 N         -80.4464   24.0897  -76.8426 N.am      3 UNK        -0.4254 
     60 C         -80.2424   24.6828  -75.6577 C.2       2 UNK         0.5004 
     61 O         -79.1313   24.9749  -75.2102 O.2       2 UNK        -0.5226 
     62 CA        -81.4814   25.0086  -74.8150 C.3       2 UNK         0.0269 
     63 CB        -81.5073   24.1515  -73.5389 C.3       2 UNK        -0.1926 
     64 N         -81.4582   26.4226  -74.4450 N.am      2 UNK        -0.4687 
     65 C         -81.6724   27.4397  -75.2898 C.2       1 UNK         0.5165 
     66 O         -82.0386   27.2853  -76.4575 O.2       1 UNK        -0.5079 
     67 H67       -85.6956   30.2348  -75.1432 H         1 UNK         0.0900 
     68 H68       -84.4503   31.4726  -74.9689 H         1 UNK         0.0900 
     69 H69       -85.2798   30.8508  -73.5416 H         1 UNK         0.0900 
     70 H70       -82.4374   30.6449  -75.2104 H         1 UNK         0.2959 
     71 H71       -80.7706   29.2969  -75.5478 H         1 UNK         0.1079 
     72 H72       -80.2564   30.0122  -73.3347 H         1 UNK         0.0837 
     73 H73       -79.6355   28.4120  -73.5714 H         1 UNK         0.0837 
     74 H74       -80.8304   29.1363  -69.6905 H         1 UNK         0.0685 
     75 H75       -80.4672   30.3905  -70.8486 H         1 UNK         0.0685 
     76 H76       -79.3971   26.9224  -69.8619 H         1 UNK         0.1434 
     77 H77       -75.2399   27.7141  -70.5863 H         1 UNK         0.1329 
     78 H78       -78.1821   30.6997  -71.4808 H         1 UNK         0.1335 
     79 H79       -75.7993   31.2826  -71.3112 H         1 UNK         0.0680 
     80 H80       -74.5825   30.0753  -70.9732 H         1 UNK         0.0680 
     81 H81       -74.3015   32.3080  -72.7718 H         1 UNK         0.1032 
     82 H82       -74.6196   32.1240  -74.4607 H         1 UNK         0.1032 
     83 H83       -72.2558   32.3642  -74.0959 H         1 UNK         0.0461 
     84 H84       -70.4879   29.6141  -71.9160 H         1 UNK         0.3453 
     85 H85       -70.8017   29.4723  -73.6278 H         1 UNK         0.3453 
     86 H86       -73.1108   29.7775  -75.1900 H         1 UNK         0.2984 
     87 H87       -72.2857   29.8073  -77.7088 H         1 UNK         0.0554 
     88 H88       -70.1608   29.0118  -78.7588 H         1 UNK         0.0847 
     89 H89       -69.2398   29.6448  -77.3954 H         1 UNK         0.0847 
     90 H90       -70.1205   30.7397  -78.4493 H         1 UNK         0.0847 
     91 H91       -72.3774   27.7769  -76.8725 H         1 UNK         0.3141 
     92 H92       -70.1941   25.5885  -75.5137 H         1 UNK         0.0743 
     93 H93       -72.1359   26.7574  -73.4496 H         1 UNK         0.0784 
     94 H94       -71.5799   25.0834  -73.4647 H         1 UNK         0.0784 
     95 H95       -70.4371   26.3899  -73.2010 H         1 UNK         0.0784 
     96 H96       -73.0999   25.6215  -75.4886 H         1 UNK         0.3213 
     97 H97       -73.5327   25.2986  -78.9542 H         1 UNK         0.0855 
     98 H98       -73.7647   22.8708  -77.0916 H         1 UNK         0.0814 
     99 H99       -72.7982   22.9165  -78.5608 H         1 UNK         0.0814 
    100 H100      -74.5425   23.0650  -78.6626 H         1 UNK         0.0814 
    101 H101      -75.4231   24.7148  -76.9760 H         1 UNK         0.3105 
    102 H102      -75.8821   27.8269  -75.4189 H         1 UNK         0.0547 
    103 H103      -77.2197   28.2447  -77.4698 H         1 UNK         0.0837 
    104 H104      -77.7435   26.5676  -77.4983 H         1 UNK         0.0837 
    105 H105      -78.2474   27.6292  -76.1840 H         1 UNK         0.0837 
    106 H106      -77.4452   25.5058  -75.1979 H         1 UNK         0.3020 
    107 H107      -75.2792   23.5809  -73.0962 H         1 UNK         0.1245 
    108 H108      -77.5942   25.4161  -72.3812 H         1 UNK         0.0781 
    109 H109      -77.6707   23.7425  -71.9007 H         1 UNK         0.0781 
    110 H110      -77.8367   25.1983  -69.4341 H         1 UNK         0.0836 
    111 H111      -76.4185   25.8919  -68.6875 H         1 UNK         0.0836 
    112 H112      -77.8710   23.4952  -74.5400 H         1 UNK         0.3022 
    113 H113      -76.6891   20.9179  -76.6478 H         1 UNK         0.0747 
    114 H114      -78.5283   19.5109  -75.7510 H         1 UNK         0.0793 
    115 H115      -77.1792   19.5258  -74.6285 H         1 UNK         0.0793 
    116 H116      -78.6057   20.4955  -74.2885 H         1 UNK         0.0793 
    117 H117      -79.3254   21.9044  -76.2127 H         1 UNK         0.3047 
    118 H118      -79.0888   24.8217  -78.2222 H         1 UNK         0.0822 
    119 H119      -80.4500   22.1314  -78.7587 H         1 UNK         0.0807 
    120 H120      -79.3079   22.9214  -79.8370 H         1 UNK         0.0807 
    121 H121      -80.8550   23.6783  -79.5035 H         1 UNK         0.0807 
    122 H122      -81.3964   23.8808  -77.1149 H         1 UNK         0.2946 
    123 H123      -82.3864   24.8112  -75.3941 H         1 UNK         0.1144 
    124 H124      -82.3872   24.3700  -72.9336 H         1 UNK         0.0793 
    125 H125      -80.6251   24.3202  -72.9193 H         1 UNK         0.0793 
    126 H126      -81.5371   23.0887  -73.7823 H         1 UNK         0.0793 
    127 H127      -81.1731   26.6465  -73.5008 H         1 UNK         0.2896 
@<TRIPOS>BOND
     1    1    2 1    
     2    1   67 1    
     3    1   68 1    
     4    1   69 1    
     5    2    3 2    
     6    2    4 am   BACKBONE|DICT|INTERRES
     7    4    5 1    
     8    4   70 1    
     9    5    6 1    
    10    5   65 1    
    11    5   71 1    
    12    6    7 1    
    13    6   72 1    
    14    6   73 1    
    15    7    8 1    
    16    8    9 1    
    17    8   74 1    
    18    8   75 1    
    19    9   10 ar   
    20    9   14 ar   
    21   10   11 ar   
    22   10   76 1    
    23   11   12 ar   
    24   11   48 1    
    25   12   13 ar   
    26   12   77 1    
    27   13   14 ar   
    28   13   15 1    
    29   14   78 1    
    30   15   16 1    
    31   15   79 1    
    32   15   80 1    
    33   16   17 1    
    34   17   18 1    
    35   17   81 1    
    36   17   82 1    
    37   18   19 1    
    38   18   22 1    
    39   18   83 1    
    40   19   20 am   BACKBONE|DICT|INTERRES
    41   19   21 2    
    42   20   84 1    
    43   20   85 1    
    44   22   23 am   BACKBONE|DICT|INTERRES
    45   22   86 1    
    46   23   24 2    
    47   23   25 1    
    48   25   26 1    
    49   25   27 1    
    50   25   87 1    
    51   26   88 1    
    52   26   89 1    
    53   26   90 1    
    54   27   28 am   BACKBONE|DICT|INTERRES
    55   27   91 1    
    56   28   29 2    
    57   28   30 1    
    58   30   31 1    
    59   30   32 1    
    60   30   92 1    
    61   31   93 1    
    62   31   94 1    
    63   31   95 1    
    64   32   33 am   BACKBONE|DICT|INTERRES
    65   32   96 1    
    66   33   34 2    
    67   33   35 1    
    68   35   36 1    
    69   35   37 1    
    70   35   97 1    
    71   36   98 1    
    72   36   99 1    
    73   36  100 1    
    74   37   38 am   BACKBONE|DICT|INTERRES
    75   37  101 1    
    76   38   39 2    
    77   38   40 1    
    78   40   41 1    
    79   40   42 1    
    80   40  102 1    
    81   41  103 1    
    82   41  104 1    
    83   41  105 1    
    84   42   43 am   BACKBONE|DICT|INTERRES
    85   42  106 1    
    86   43   44 2    
    87   43   45 1    
    88   45   46 1    
    89   45   49 1    
    90   45  107 1    
    91   46   47 1    
    92   46  108 1    
    93   46  109 1    
    94   47   48 1    
    95   48  110 1    
    96   48  111 1    
    97   49   50 am   BACKBONE|DICT|INTERRES
    98   49  112 1    
    99   50   51 2    
   100   50   52 1    
   101   52   53 1    
   102   52   54 1    
   103   52  113 1    
   104   53  114 1    
   105   53  115 1    
   106   53  116 1    
   107   54   55 am   BACKBONE|DICT|INTERRES
   108   54  117 1    
   109   55   56 2    
   110   55   57 1    
   111   57   58 1    
   112   57   59 1    
   113   57  118 1    
   114   58  119 1    
   115   58  120 1    
   116   58  121 1    
   117   59   60 am   BACKBONE|DICT|INTERRES
   118   59  122 1    
   119   60   61 2    
   120   60   62 1    
   121   62   63 1    
   122   62   64 1    
   123   62  123 1    
   124   63  124 1    
   125   63  125 1    
   126   63  126 1    
   127   64   65 am   BACKBONE|DICT|INTERRES
   128   64  127 1    
   129   65   66 2    
@<TRIPOS>SUBSTRUCTURE
     1 UNK         1 GROUP             0       ****    0 ROOT    
