@<TRIPOS>MOLECULE
3R135
127   129    1
SMALL
USER_CHARGES


@<TRIPOS>ATOM
      1 CA        -80.0728   25.3025  -67.2639 C.3       0 UNK        -0.1998 
      2 C         -80.8046   25.3951  -68.5946 C.2       0 UNK         0.4909 
      3 O         -82.0328   25.3060  -68.6254 O.2       0 UNK        -0.5240 
      4 N         -80.0617   25.5815  -69.6930 N.am      1 UNK        -0.4739 
      5 CA        -80.5921   25.6168  -71.0597 C.3       1 UNK         0.0864 
      6 C6        -79.5816   26.2775  -72.0335 C.3       11 UNK        -0.0881 
      7 S7        -80.4023   27.0342  -73.4789 S.3       11 UNK        -0.2682 
      8 C8        -80.3323   28.8122  -73.0815 C.3       11 UNK         0.0289 
      9 C9        -79.0496   29.4647  -73.5829 C.ar      11 UNK        -0.0687 
     10 C10       -79.0396   30.1621  -74.7968 C.ar      11 UNK        -0.0823 
     11 C11       -77.8735   30.7918  -75.2469 C.ar      11 UNK        -0.0830 
     12 C12       -76.7041   30.6906  -74.4866 C.ar      11 UNK        -0.1021 
     13 C13       -76.6996   29.9927  -73.2762 C.ar      11 UNK        -0.0753 
     14 C14       -77.8786   29.3975  -72.8224 C.ar      11 UNK        -0.0933 
     15 C15       -75.4126   29.8363  -72.4824 C.3       11 UNK         0.0166 
     16 S16       -74.7215   31.4263  -71.9398 S.3       11 UNK        -0.2615 
     17 C17       -73.2387   30.8564  -71.0394 C.3       11 UNK        -0.0865 
     18 CA        -71.9712   30.8094  -71.9345 C.3       10 UNK         0.0862 
     19 C         -70.6766   30.7022  -71.0760 C.2       10 UNK         0.5551 
     20 N         -69.8578   29.6674  -71.2261 N.am      10 UNK        -0.7319 
     21 O         -70.4035   31.5839  -70.2652 O.2       10 UNK        -0.5018 
     22 N         -72.0751   29.7662  -72.9700 N.am      10 UNK        -0.4509 
     23 C         -71.5523   29.8439  -74.1969 C.2       10 UNK         0.4899 
     24 O         -70.9786   30.8451  -74.6273 O.2       10 UNK        -0.4839 
     25 CA        -71.6637   28.6106  -75.1154 C.3       9 UNK         0.0222 
     26 CB        -70.3635   27.7851  -75.0762 C.3       9 UNK        -0.1966 
     27 N         -72.8339   27.7377  -74.9316 N.am      9 UNK        -0.4218 
     28 C         -73.1751   26.9673  -73.8871 C.2       9 UNK         0.5020 
     29 O         -72.6180   27.0110  -72.7895 O.2       9 UNK        -0.5274 
     30 CA        -74.3207   25.9607  -74.1101 C.3       8 UNK         0.0270 
     31 CB        -75.6969   26.6106  -73.8987 C.3       8 UNK        -0.1976 
     32 N         -74.2793   25.3426  -75.4368 N.am      8 UNK        -0.4313 
     33 C         -73.3204   24.5099  -75.8674 C.2       8 UNK         0.5041 
     34 O         -72.3835   24.1172  -75.1711 O.2       8 UNK        -0.5577 
     35 CA        -73.4164   24.0472  -77.3287 C.3       7 UNK         0.0284 
     36 CB        -74.4167   22.8878  -77.4749 C.3       7 UNK        -0.1958 
     37 N         -73.7959   25.1523  -78.2116 N.am      7 UNK        -0.4454 
     38 C         -72.9373   26.0694  -78.6804 C.2       7 UNK         0.5089 
     39 O         -71.7233   26.0363  -78.4790 O.2       7 UNK        -0.5125 
     40 CA        -73.5232   27.2222  -79.5184 C.3       6 UNK         0.0408 
     41 CB        -73.4388   26.8894  -81.0164 C.3       6 UNK        -0.1791 
     42 N         -74.9080   27.5609  -79.1769 N.am      6 UNK        -0.4762 
     43 C         -75.2958   28.1010  -78.0115 C.2       6 UNK         0.5007 
     44 O         -74.5200   28.3686  -77.0946 O.2       6 UNK        -0.5032 
     45 CA        -76.8158   28.2950  -77.8092 C.3       5 UNK         0.0783 
     46 C46       -77.3380   29.6110  -78.4366 C.3       11 UNK        -0.0857 
     47 S47       -76.6142   31.1247  -77.7216 S.3       11 UNK        -0.2512 
     48 C48       -77.8892   31.6288  -76.5210 C.3       11 UNK         0.0225 
     49 N         -77.5899   27.1484  -78.3033 N.am      5 UNK        -0.4615 
     50 C         -77.4398   25.8846  -77.8914 C.2       4 UNK         0.5053 
     51 O         -76.5993   25.5291  -77.0623 O.2       4 UNK        -0.5105 
     52 CA        -78.3258   24.8283  -78.5691 C.3       4 UNK         0.0263 
     53 CB        -77.5834   24.1945  -79.7570 C.3       4 UNK        -0.1981 
     54 N         -78.6995   23.7812  -77.6181 N.am      4 UNK        -0.4224 
     55 C         -79.5412   23.9749  -76.5960 C.2       3 UNK         0.4895 
     56 O         -80.1994   25.0070  -76.4365 O.2       3 UNK        -0.5091 
     57 CA        -79.6497   22.8336  -75.5777 C.3       3 UNK         0.0250 
     58 CB        -78.3328   22.6594  -74.7948 C.3       3 UNK        -0.1996 
     59 N         -80.7260   23.1511  -74.6468 N.am      3 UNK        -0.4254 
     60 C         -81.4801   22.2783  -73.9712 C.2       2 UNK         0.5004 
     61 O         -81.3662   21.0548  -74.0689 O.2       2 UNK        -0.5226 
     62 CA        -82.5296   22.8930  -73.0203 C.3       2 UNK         0.0269 
     63 CB        -83.0878   21.8786  -71.9984 C.3       2 UNK        -0.1926 
     64 N         -82.0394   24.1065  -72.3456 N.am      2 UNK        -0.4687 
     65 C         -80.9782   24.1980  -71.5280 C.2       1 UNK         0.5165 
     66 O         -80.2895   23.2361  -71.1764 O.2       1 UNK        -0.5079 
     67 H67       -80.4196   26.0851  -66.5895 H         1 UNK         0.0900 
     68 H68       -78.9948   25.4105  -67.3826 H         1 UNK         0.0900 
     69 H69       -80.2673   24.3379  -66.7957 H         1 UNK         0.0900 
     70 H70       -79.0554   25.6055  -69.6109 H         1 UNK         0.2959 
     71 H71       -81.4983   26.2270  -71.0308 H         1 UNK         0.1079 
     72 H72       -79.0220   27.0502  -71.5100 H         1 UNK         0.0837 
     73 H73       -78.8308   25.5649  -72.3823 H         1 UNK         0.0837 
     74 H74       -80.4389   28.9611  -72.0058 H         1 UNK         0.0685 
     75 H75       -81.1961   29.2992  -73.5364 H         1 UNK         0.0685 
     76 H76       -79.9483   30.2325  -75.3790 H         1 UNK         0.1434 
     77 H77       -75.7943   31.1622  -74.8334 H         1 UNK         0.1329 
     78 H78       -77.8768   28.8731  -71.8789 H         1 UNK         0.1335 
     79 H79       -74.6889   29.3300  -73.1171 H         1 UNK         0.0680 
     80 H80       -75.5677   29.1984  -71.6109 H         1 UNK         0.0680 
     81 H81       -73.0951   31.5521  -70.2101 H         1 UNK         0.1032 
     82 H82       -73.4257   29.8842  -70.5799 H         1 UNK         0.1032 
     83 H83       -71.8997   31.7779  -72.4333 H         1 UNK         0.0461 
     84 H84       -69.0203   29.6135  -70.6679 H         1 UNK         0.3453 
     85 H85       -70.0755   28.9375  -71.8851 H         1 UNK         0.3453 
     86 H86       -72.4464   28.8655  -72.6808 H         1 UNK         0.2984 
     87 H87       -71.7666   29.0018  -76.1290 H         1 UNK         0.0554 
     88 H88       -70.3850   26.9821  -75.8136 H         1 UNK         0.0847 
     89 H89       -70.1959   27.3352  -74.0972 H         1 UNK         0.0847 
     90 H90       -69.4965   28.4078  -75.3011 H         1 UNK         0.0847 
     91 H91       -73.4518   27.7154  -75.7418 H         1 UNK         0.3141 
     92 H92       -74.2070   25.1636  -73.3725 H         1 UNK         0.0743 
     93 H93       -75.7958   26.9883  -72.8811 H         1 UNK         0.0784 
     94 H94       -75.8606   27.4444  -74.5824 H         1 UNK         0.0784 
     95 H95       -76.5040   25.8940  -74.0536 H         1 UNK         0.0784 
     96 H96       -75.0568   25.5479  -76.0621 H         1 UNK         0.3213 
     97 H97       -72.4326   23.6783  -77.6283 H         1 UNK         0.0855 
     98 H98       -75.4228   23.1708  -77.1657 H         1 UNK         0.0814 
     99 H99       -74.1168   22.0398  -76.8577 H         1 UNK         0.0814 
    100 H100      -74.4670   22.5351  -78.5050 H         1 UNK         0.0814 
    101 H101      -74.7842   25.2901  -78.3706 H         1 UNK         0.3105 
    102 H102      -72.9088   28.1057  -79.3317 H         1 UNK         0.0547 
    103 H103      -74.0506   26.0241  -81.2744 H         1 UNK         0.0837 
    104 H104      -73.7660   27.7291  -81.6297 H         1 UNK         0.0837 
    105 H105      -72.4126   26.6601  -81.3073 H         1 UNK         0.0837 
    106 H106      -75.6130   27.3593  -79.8713 H         1 UNK         0.3020 
    107 H107      -76.9846   28.3456  -76.7307 H         1 UNK         0.1245 
    108 H108      -78.4227   29.6656  -78.3320 H         1 UNK         0.0781 
    109 H109      -77.1457   29.6222  -79.5111 H         1 UNK         0.0781 
    110 H110      -77.7107   32.6695  -76.2473 H         1 UNK         0.0836 
    111 H111      -78.8700   31.6075  -76.9987 H         1 UNK         0.0836 
    112 H112      -78.2949   27.3516  -78.9971 H         1 UNK         0.3022 
    113 H113      -79.2368   25.3060  -78.9364 H         1 UNK         0.0747 
    114 H114      -77.3114   24.9482  -80.4972 H         1 UNK         0.0793 
    115 H115      -78.2057   23.4568  -80.2641 H         1 UNK         0.0793 
    116 H116      -76.6641   23.6979  -79.4447 H         1 UNK         0.0793 
    117 H117      -78.1793   22.9177  -77.6667 H         1 UNK         0.3047 
    118 H118      -79.8896   21.9143  -76.1163 H         1 UNK         0.0822 
    119 H119      -77.5077   22.3897  -75.4548 H         1 UNK         0.0807 
    120 H120      -78.4172   21.8705  -74.0471 H         1 UNK         0.0807 
    121 H121      -78.0501   23.5780  -74.2785 H         1 UNK         0.0807 
    122 H122      -80.9194   24.1426  -74.5677 H         1 UNK         0.2946 
    123 H123      -83.3595   23.2055  -73.6566 H         1 UNK         0.1144 
    124 H124      -83.5731   21.0426  -72.5036 H         1 UNK         0.0793 
    125 H125      -83.8321   22.3387  -71.3485 H         1 UNK         0.0793 
    126 H126      -82.3021   21.4626  -71.3671 H         1 UNK         0.0793 
    127 H127      -82.5217   24.9612  -72.5899 H         1 UNK         0.2896 
@<TRIPOS>BOND
     1    1    2 1    
     2    1   67 1    
     3    1   68 1    
     4    1   69 1    
     5    2    3 2    
     6    2    4 am   BACKBONE|DICT|INTERRES
     7    4    5 1    
     8    4   70 1    
     9    5    6 1    
    10    5   65 1    
    11    5   71 1    
    12    6    7 1    
    13    6   72 1    
    14    6   73 1    
    15    7    8 1    
    16    8    9 1    
    17    8   74 1    
    18    8   75 1    
    19    9   10 ar   
    20    9   14 ar   
    21   10   11 ar   
    22   10   76 1    
    23   11   12 ar   
    24   11   48 1    
    25   12   13 ar   
    26   12   77 1    
    27   13   14 ar   
    28   13   15 1    
    29   14   78 1    
    30   15   16 1    
    31   15   79 1    
    32   15   80 1    
    33   16   17 1    
    34   17   18 1    
    35   17   81 1    
    36   17   82 1    
    37   18   19 1    
    38   18   22 1    
    39   18   83 1    
    40   19   20 am   BACKBONE|DICT|INTERRES
    41   19   21 2    
    42   20   84 1    
    43   20   85 1    
    44   22   23 am   BACKBONE|DICT|INTERRES
    45   22   86 1    
    46   23   24 2    
    47   23   25 1    
    48   25   26 1    
    49   25   27 1    
    50   25   87 1    
    51   26   88 1    
    52   26   89 1    
    53   26   90 1    
    54   27   28 am   BACKBONE|DICT|INTERRES
    55   27   91 1    
    56   28   29 2    
    57   28   30 1    
    58   30   31 1    
    59   30   32 1    
    60   30   92 1    
    61   31   93 1    
    62   31   94 1    
    63   31   95 1    
    64   32   33 am   BACKBONE|DICT|INTERRES
    65   32   96 1    
    66   33   34 2    
    67   33   35 1    
    68   35   36 1    
    69   35   37 1    
    70   35   97 1    
    71   36   98 1    
    72   36   99 1    
    73   36  100 1    
    74   37   38 am   BACKBONE|DICT|INTERRES
    75   37  101 1    
    76   38   39 2    
    77   38   40 1    
    78   40   41 1    
    79   40   42 1    
    80   40  102 1    
    81   41  103 1    
    82   41  104 1    
    83   41  105 1    
    84   42   43 am   BACKBONE|DICT|INTERRES
    85   42  106 1    
    86   43   44 2    
    87   43   45 1    
    88   45   46 1    
    89   45   49 1    
    90   45  107 1    
    91   46   47 1    
    92   46  108 1    
    93   46  109 1    
    94   47   48 1    
    95   48  110 1    
    96   48  111 1    
    97   49   50 am   BACKBONE|DICT|INTERRES
    98   49  112 1    
    99   50   51 2    
   100   50   52 1    
   101   52   53 1    
   102   52   54 1    
   103   52  113 1    
   104   53  114 1    
   105   53  115 1    
   106   53  116 1    
   107   54   55 am   BACKBONE|DICT|INTERRES
   108   54  117 1    
   109   55   56 2    
   110   55   57 1    
   111   57   58 1    
   112   57   59 1    
   113   57  118 1    
   114   58  119 1    
   115   58  120 1    
   116   58  121 1    
   117   59   60 am   BACKBONE|DICT|INTERRES
   118   59  122 1    
   119   60   61 2    
   120   60   62 1    
   121   62   63 1    
   122   62   64 1    
   123   62  123 1    
   124   63  124 1    
   125   63  125 1    
   126   63  126 1    
   127   64   65 am   BACKBONE|DICT|INTERRES
   128   64  127 1    
   129   65   66 2    
@<TRIPOS>SUBSTRUCTURE
     1 UNK         1 GROUP             0       ****    0 ROOT    
