@<TRIPOS>MOLECULE
3R135
127   129    1
SMALL
USER_CHARGES


@<TRIPOS>ATOM
      1 CA        -79.9027   29.0111  -77.0274 C.3       0 UNK        -0.1998 
      2 C         -79.9577   28.7949  -75.5226 C.2       0 UNK         0.4909 
      3 O         -79.1050   29.3086  -74.8008 O.2       0 UNK        -0.5240 
      4 N         -80.9449   28.0293  -75.0488 N.am      1 UNK        -0.4739 
      5 CA        -81.1327   27.6390  -73.6536 C.3       1 UNK         0.0864 
      6 C6        -81.6844   28.8077  -72.7880 C.3       11 UNK        -0.0881 
      7 S7        -81.9180   28.3989  -71.0200 S.3       11 UNK        -0.2682 
      8 C8        -80.5266   29.2643  -70.2124 C.3       11 UNK         0.0289 
      9 C9        -79.1478   28.7312  -70.5956 C.ar      11 UNK        -0.0687 
     10 C10       -78.9123   27.3590  -70.7427 C.ar      11 UNK        -0.0823 
     11 C11       -77.6551   26.8910  -71.1331 C.ar      11 UNK        -0.0830 
     12 C12       -76.6020   27.7968  -71.2899 C.ar      11 UNK        -0.1021 
     13 C13       -76.8175   29.1679  -71.1375 C.ar      11 UNK        -0.0753 
     14 C14       -78.0928   29.6287  -70.7946 C.ar      11 UNK        -0.0933 
     15 C15       -75.6769   30.1485  -71.3674 C.3       11 UNK         0.0166 
     16 S16       -75.2231   30.2351  -73.1301 S.3       11 UNK        -0.2615 
     17 C17       -74.2062   31.7532  -73.1626 C.3       11 UNK        -0.0865 
     18 CA        -72.6764   31.5119  -73.2649 C.3       10 UNK         0.0862 
     19 C         -72.0522   30.9672  -71.9450 C.2       10 UNK         0.5551 
     20 N         -71.2088   29.9419  -71.9694 N.am      10 UNK        -0.7319 
     21 O         -72.3252   31.5008  -70.8725 O.2       10 UNK        -0.5018 
     22 N         -72.3254   30.7489  -74.4732 N.am      10 UNK        -0.4509 
     23 C         -71.2139   30.9310  -75.1966 C.2       10 UNK         0.4899 
     24 O         -70.3926   31.8230  -74.9756 O.2       10 UNK        -0.4839 
     25 CA        -70.9802   29.9345  -76.3514 C.3       9 UNK         0.0222 
     26 CB        -69.5644   30.0422  -76.9560 C.3       9 UNK        -0.1966 
     27 N         -71.2704   28.5395  -75.9925 N.am      9 UNK        -0.4218 
     28 C         -70.7571   27.8394  -74.9656 C.2       9 UNK         0.5020 
     29 O         -69.9822   28.3147  -74.1347 O.2       9 UNK        -0.5274 
     30 CA        -71.1873   26.3695  -74.8075 C.3       8 UNK         0.0270 
     31 CB        -72.0453   26.1952  -73.5416 C.3       8 UNK        -0.1976 
     32 N         -71.9209   25.8638  -75.9713 N.am      8 UNK        -0.4313 
     33 C         -71.3380   25.3952  -77.0862 C.2       8 UNK         0.5041 
     34 O         -70.1190   25.2733  -77.2135 O.2       8 UNK        -0.5577 
     35 CA        -72.2479   25.0093  -78.2700 C.3       7 UNK         0.0284 
     36 CB        -72.4474   23.4859  -78.3175 C.3       7 UNK        -0.1958 
     37 N         -73.5584   25.6640  -78.2536 N.am      7 UNK        -0.4454 
     38 C         -73.7613   26.9849  -78.3797 C.2       7 UNK         0.5089 
     39 O         -72.8586   27.7983  -78.5760 O.2       7 UNK        -0.5125 
     40 CA        -75.2014   27.4953  -78.1740 C.3       6 UNK         0.0408 
     41 CB        -75.9267   27.6186  -79.5226 C.3       6 UNK        -0.1791 
     42 N         -75.9990   26.6619  -77.2670 N.am      6 UNK        -0.4762 
     43 C         -75.6631   26.3526  -76.0045 C.2       6 UNK         0.5007 
     44 O         -74.6547   26.7878  -75.4503 O.2       6 UNK        -0.5032 
     45 CA        -76.5547   25.3497  -75.2476 C.3       5 UNK         0.0783 
     46 C46       -77.4395   26.0870  -74.2223 C.3       11 UNK        -0.0857 
     47 S47       -78.2490   24.9581  -73.0325 S.3       11 UNK        -0.2512 
     48 C48       -77.4506   25.4167  -71.4535 C.3       11 UNK         0.0225 
     49 N         -77.3665   24.5143  -76.1336 N.am      5 UNK        -0.4615 
     50 C         -76.9309   23.6055  -77.0110 C.2       4 UNK         0.5053 
     51 O         -75.7373   23.4117  -77.2468 O.2       4 UNK        -0.5105 
     52 CA        -78.0232   22.7903  -77.7402 C.3       4 UNK         0.0263 
     53 CB        -77.4360   21.6305  -78.5657 C.3       4 UNK        -0.1981 
     54 N         -79.0443   22.2578  -76.8252 N.am      4 UNK        -0.4224 
     55 C         -79.9995   22.9700  -76.2093 C.2       3 UNK         0.4895 
     56 O         -80.1556   24.1815  -76.3869 O.2       3 UNK        -0.5091 
     57 CA        -80.8922   22.2368  -75.1965 C.3       3 UNK         0.0250 
     58 CB        -80.2115   21.0225  -74.5287 C.3       3 UNK        -0.1996 
     59 N         -81.3034   23.1942  -74.1726 N.am      3 UNK        -0.4254 
     60 C         -82.4611   23.1808  -73.5054 C.2       2 UNK         0.5004 
     61 O         -83.3282   22.3188  -73.6558 O.2       2 UNK        -0.5226 
     62 CA        -82.6942   24.3087  -72.4838 C.3       2 UNK         0.0269 
     63 CB        -82.4534   23.7925  -71.0555 C.3       2 UNK        -0.1926 
     64 N         -81.8610   25.4972  -72.6979 N.am      2 UNK        -0.4687 
     65 C         -82.0543   26.4037  -73.6646 C.2       1 UNK         0.5165 
     66 O         -82.9280   26.3031  -74.5310 O.2       1 UNK        -0.5079 
     67 H67       -80.0123   30.0704  -77.2582 H         1 UNK         0.0900 
     68 H68       -80.6909   28.4661  -77.5467 H         1 UNK         0.0900 
     69 H69       -78.9430   28.6742  -77.4186 H         1 UNK         0.0900 
     70 H70       -81.6204   27.6069  -75.6756 H         1 UNK         0.2959 
     71 H71       -80.1606   27.3368  -73.2607 H         1 UNK         0.1079 
     72 H72       -81.0167   29.6676  -72.8581 H         1 UNK         0.0837 
     73 H73       -82.6431   29.1465  -73.1848 H         1 UNK         0.0837 
     74 H74       -80.6419   29.1712  -69.1320 H         1 UNK         0.0685 
     75 H75       -80.6045   30.3288  -70.4396 H         1 UNK         0.0685 
     76 H76       -79.7177   26.6542  -70.5952 H         1 UNK         0.1434 
     77 H77       -75.6236   27.4437  -71.5873 H         1 UNK         0.1329 
     78 H78       -78.2649   30.6907  -70.6851 H         1 UNK         0.1335 
     79 H79       -74.8069   29.8443  -70.7837 H         1 UNK         0.0680 
     80 H80       -75.9586   31.1409  -71.0122 H         1 UNK         0.0680 
     81 H81       -74.4385   32.3805  -72.3003 H         1 UNK         0.1032 
     82 H82       -74.5285   32.3370  -74.0260 H         1 UNK         0.1032 
     83 H83       -72.2366   32.5054  -73.3710 H         1 UNK         0.0461 
     84 H84       -70.8143   29.6160  -71.1019 H         1 UNK         0.3453 
     85 H85       -70.9212   29.5116  -72.8413 H         1 UNK         0.3453 
     86 H86       -72.9406   29.9804  -74.6995 H         1 UNK         0.2984 
     87 H87       -71.6931   30.2020  -77.1327 H         1 UNK         0.0554 
     88 H88       -69.4382   29.3556  -77.7932 H         1 UNK         0.0847 
     89 H89       -68.7928   29.8173  -76.2187 H         1 UNK         0.0847 
     90 H90       -69.3729   31.0478  -77.3323 H         1 UNK         0.0847 
     91 H91       -71.8965   28.0581  -76.6272 H         1 UNK         0.3141 
     92 H92       -70.2793   25.7766  -74.6785 H         1 UNK         0.0743 
     93 H93       -72.9137   26.8545  -73.5420 H         1 UNK         0.0784 
     94 H94       -72.3992   25.1697  -73.4355 H         1 UNK         0.0784 
     95 H95       -71.4670   26.4318  -72.6474 H         1 UNK         0.0784 
     96 H96       -72.9308   25.9735  -75.9417 H         1 UNK         0.3213 
     97 H97       -71.7362   25.3165  -79.1847 H         1 UNK         0.0855 
     98 H98       -72.9594   23.1187  -77.4269 H         1 UNK         0.0814 
     99 H99       -71.4894   22.9679  -78.3796 H         1 UNK         0.0814 
    100 H100      -73.0333   23.1876  -79.1871 H         1 UNK         0.0814 
    101 H101      -74.3567   25.0698  -78.0628 H         1 UNK         0.3105 
    102 H102      -75.1344   28.4898  -77.7282 H         1 UNK         0.0547 
    103 H103      -75.3653   28.2530  -80.2101 H         1 UNK         0.0837 
    104 H104      -76.0528   26.6483  -80.0047 H         1 UNK         0.0837 
    105 H105      -76.9131   28.0675  -79.4047 H         1 UNK         0.0837 
    106 H106      -76.8405   26.2514  -77.6447 H         1 UNK         0.3020 
    107 H107      -75.8750   24.6884  -74.7055 H         1 UNK         0.1245 
    108 H108      -78.2182   26.6491  -74.7363 H         1 UNK         0.0781 
    109 H109      -76.8503   26.8303  -73.6889 H         1 UNK         0.0781 
    110 H110      -76.3882   25.1734  -71.5052 H         1 UNK         0.0836 
    111 H111      -77.8671   24.8062  -70.6510 H         1 UNK         0.0836 
    112 H112      -78.3742   24.6042  -76.0340 H         1 UNK         0.3022 
    113 H113      -78.5137   23.4751  -78.4351 H         1 UNK         0.0747 
    114 H114      -78.2143   21.0968  -79.1115 H         1 UNK         0.0793 
    115 H115      -76.7210   21.9969  -79.3038 H         1 UNK         0.0793 
    116 H116      -76.9129   20.9109  -77.9346 H         1 UNK         0.0793 
    117 H117      -78.9624   21.2784  -76.5933 H         1 UNK         0.3047 
    118 H118      -81.7730   21.8951  -75.7443 H         1 UNK         0.0822 
    119 H119      -79.9935   20.2352  -75.2509 H         1 UNK         0.0807 
    120 H120      -80.8561   20.5786  -73.7697 H         1 UNK         0.0807 
    121 H121      -79.2757   21.3024  -74.0424 H         1 UNK         0.0807 
    122 H122      -80.6748   23.9739  -74.0315 H         1 UNK         0.2946 
    123 H123      -83.7421   24.6061  -72.5692 H         1 UNK         0.1144 
    124 H124      -83.0807   22.9257  -70.8420 H         1 UNK         0.0793 
    125 H125      -82.6928   24.5537  -70.3125 H         1 UNK         0.0793 
    126 H126      -81.4164   23.4890  -70.9056 H         1 UNK         0.0793 
    127 H127      -81.1267   25.6556  -72.0241 H         1 UNK         0.2896 
@<TRIPOS>BOND
     1    1    2 1    
     2    1   67 1    
     3    1   68 1    
     4    1   69 1    
     5    2    3 2    
     6    2    4 am   BACKBONE|DICT|INTERRES
     7    4    5 1    
     8    4   70 1    
     9    5    6 1    
    10    5   65 1    
    11    5   71 1    
    12    6    7 1    
    13    6   72 1    
    14    6   73 1    
    15    7    8 1    
    16    8    9 1    
    17    8   74 1    
    18    8   75 1    
    19    9   10 ar   
    20    9   14 ar   
    21   10   11 ar   
    22   10   76 1    
    23   11   12 ar   
    24   11   48 1    
    25   12   13 ar   
    26   12   77 1    
    27   13   14 ar   
    28   13   15 1    
    29   14   78 1    
    30   15   16 1    
    31   15   79 1    
    32   15   80 1    
    33   16   17 1    
    34   17   18 1    
    35   17   81 1    
    36   17   82 1    
    37   18   19 1    
    38   18   22 1    
    39   18   83 1    
    40   19   20 am   BACKBONE|DICT|INTERRES
    41   19   21 2    
    42   20   84 1    
    43   20   85 1    
    44   22   23 am   BACKBONE|DICT|INTERRES
    45   22   86 1    
    46   23   24 2    
    47   23   25 1    
    48   25   26 1    
    49   25   27 1    
    50   25   87 1    
    51   26   88 1    
    52   26   89 1    
    53   26   90 1    
    54   27   28 am   BACKBONE|DICT|INTERRES
    55   27   91 1    
    56   28   29 2    
    57   28   30 1    
    58   30   31 1    
    59   30   32 1    
    60   30   92 1    
    61   31   93 1    
    62   31   94 1    
    63   31   95 1    
    64   32   33 am   BACKBONE|DICT|INTERRES
    65   32   96 1    
    66   33   34 2    
    67   33   35 1    
    68   35   36 1    
    69   35   37 1    
    70   35   97 1    
    71   36   98 1    
    72   36   99 1    
    73   36  100 1    
    74   37   38 am   BACKBONE|DICT|INTERRES
    75   37  101 1    
    76   38   39 2    
    77   38   40 1    
    78   40   41 1    
    79   40   42 1    
    80   40  102 1    
    81   41  103 1    
    82   41  104 1    
    83   41  105 1    
    84   42   43 am   BACKBONE|DICT|INTERRES
    85   42  106 1    
    86   43   44 2    
    87   43   45 1    
    88   45   46 1    
    89   45   49 1    
    90   45  107 1    
    91   46   47 1    
    92   46  108 1    
    93   46  109 1    
    94   47   48 1    
    95   48  110 1    
    96   48  111 1    
    97   49   50 am   BACKBONE|DICT|INTERRES
    98   49  112 1    
    99   50   51 2    
   100   50   52 1    
   101   52   53 1    
   102   52   54 1    
   103   52  113 1    
   104   53  114 1    
   105   53  115 1    
   106   53  116 1    
   107   54   55 am   BACKBONE|DICT|INTERRES
   108   54  117 1    
   109   55   56 2    
   110   55   57 1    
   111   57   58 1    
   112   57   59 1    
   113   57  118 1    
   114   58  119 1    
   115   58  120 1    
   116   58  121 1    
   117   59   60 am   BACKBONE|DICT|INTERRES
   118   59  122 1    
   119   60   61 2    
   120   60   62 1    
   121   62   63 1    
   122   62   64 1    
   123   62  123 1    
   124   63  124 1    
   125   63  125 1    
   126   63  126 1    
   127   64   65 am   BACKBONE|DICT|INTERRES
   128   64  127 1    
   129   65   66 2    
@<TRIPOS>SUBSTRUCTURE
     1 UNK         1 GROUP             0       ****    0 ROOT    
