@<TRIPOS>MOLECULE
3R135
127   129    1
SMALL
USER_CHARGES


@<TRIPOS>ATOM
      1 CA        -85.1301   28.1103  -72.9489 C.3       0 UNK        -0.1998 
      2 C         -83.6443   28.0508  -73.2691 C.2       0 UNK         0.4909 
      3 O         -83.1713   28.8001  -74.1236 O.2       0 UNK        -0.5240 
      4 N         -82.9053   27.1581  -72.5971 N.am      1 UNK        -0.4739 
      5 CA        -81.4552   26.9780  -72.7588 C.3       1 UNK         0.0864 
      6 C6        -80.7814   26.4794  -71.4556 C.3       11 UNK        -0.0881 
      7 S7        -80.7431   27.8058  -70.2046 S.3       11 UNK        -0.2682 
      8 C8        -78.9492   28.0072  -69.9094 C.3       11 UNK         0.0289 
      9 C9        -78.1165   28.4314  -71.1226 C.ar      11 UNK        -0.0687 
     10 C10       -78.6165   29.2857  -72.1133 C.ar      11 UNK        -0.0823 
     11 C11       -77.8192   29.6742  -73.1968 C.ar      11 UNK        -0.0830 
     12 C12       -76.4902   29.2394  -73.2578 C.ar      11 UNK        -0.1021 
     13 C13       -75.9734   28.3868  -72.2790 C.ar      11 UNK        -0.0753 
     14 C14       -76.7961   27.9829  -71.2223 C.ar      11 UNK        -0.0933 
     15 C15       -74.5441   27.8679  -72.3894 C.3       11 UNK         0.0166 
     16 S16       -73.5855   28.0918  -70.8549 S.3       11 UNK        -0.2615 
     17 C17       -72.9064   29.7758  -71.0755 C.3       11 UNK        -0.0865 
     18 CA        -71.3834   29.7780  -71.3833 C.3       10 UNK         0.0862 
     19 C         -70.5307   29.4606  -70.1174 C.2       10 UNK         0.5551 
     20 N         -69.7690   28.3739  -70.0806 N.am      10 UNK        -0.7319 
     21 O         -70.5549   30.2253  -69.1560 O.2       10 UNK        -0.5018 
     22 N         -71.0881   28.9647  -72.5733 N.am      10 UNK        -0.4509 
     23 C         -69.9659   29.0036  -73.3015 C.2       10 UNK         0.4899 
     24 O         -69.0088   29.7391  -73.0609 O.2       10 UNK        -0.4839 
     25 CA        -69.9159   28.0641  -74.5207 C.3       9 UNK         0.0222 
     26 CB        -69.3657   26.6861  -74.1182 C.3       9 UNK        -0.1966 
     27 N         -71.2200   27.8973  -75.1743 N.am      9 UNK        -0.4218 
     28 C         -71.8742   28.8715  -75.8251 C.2       9 UNK         0.5020 
     29 O         -71.4313   30.0142  -75.9565 O.2       9 UNK        -0.5274 
     30 CA        -73.2585   28.5173  -76.4075 C.3       8 UNK         0.0270 
     31 CB        -73.6902   29.4876  -77.5280 C.3       8 UNK        -0.1976 
     32 N         -73.3903   27.1181  -76.8405 N.am      8 UNK        -0.4313 
     33 C         -72.6848   26.4902  -77.7961 C.2       8 UNK         0.5041 
     34 O         -71.7711   27.0069  -78.4394 O.2       8 UNK        -0.5577 
     35 CA        -73.0786   25.0349  -78.0900 C.3       7 UNK         0.0284 
     36 CB        -72.5518   24.0912  -76.9952 C.3       7 UNK        -0.1958 
     37 N         -74.5326   24.9054  -78.2007 N.am      7 UNK        -0.4454 
     38 C         -75.2223   25.0344  -79.3443 C.2       7 UNK         0.5089 
     39 O         -74.6993   25.1620  -80.4518 O.2       7 UNK        -0.5125 
     40 CA        -76.7605   25.0372  -79.2362 C.3       6 UNK         0.0408 
     41 CB        -77.3066   23.6035  -79.3249 C.3       6 UNK        -0.1791 
     42 N         -77.2358   25.6655  -78.0012 N.am      6 UNK        -0.4762 
     43 C         -77.0796   26.9636  -77.6962 C.2       6 UNK         0.5007 
     44 O         -76.7087   27.8038  -78.5143 O.2       6 UNK        -0.5032 
     45 CA        -77.3251   27.3883  -76.2298 C.3       5 UNK         0.0783 
     46 C46       -78.5223   28.3695  -76.0831 C.3       11 UNK        -0.0857 
     47 S47       -77.9609   30.1043  -75.9901 S.3       11 UNK        -0.2512 
     48 C48       -78.4060   30.5799  -74.2794 C.3       11 UNK         0.0225 
     49 N         -77.4338   26.2457  -75.3163 N.am      5 UNK        -0.4615 
     50 C         -76.4259   25.4432  -74.9514 C.2       4 UNK         0.5053 
     51 O         -75.2700   25.5910  -75.3512 O.2       4 UNK        -0.5105 
     52 CA        -76.7725   24.2513  -74.0474 C.3       4 UNK         0.0263 
     53 CB        -76.8177   24.6760  -72.5722 C.3       4 UNK        -0.1981 
     54 N         -78.0686   23.6714  -74.4050 N.am      4 UNK        -0.4224 
     55 C         -78.2406   22.5324  -75.0881 C.2       3 UNK         0.4895 
     56 O         -77.3146   21.8542  -75.5337 O.2       3 UNK        -0.5091 
     57 CA        -79.6881   22.0481  -75.3003 C.3       3 UNK         0.0250 
     58 CB        -80.0709   21.0253  -74.2183 C.3       3 UNK        -0.1996 
     59 N         -80.6811   23.1267  -75.3126 N.am      3 UNK        -0.4254 
     60 C         -80.8120   24.0162  -76.3053 C.2       2 UNK         0.5004 
     61 O         -80.1146   24.0153  -77.3189 O.2       2 UNK        -0.5226 
     62 CA        -81.8806   25.1111  -76.1326 C.3       2 UNK         0.0269 
     63 CB        -83.2408   24.6161  -76.6499 C.3       2 UNK        -0.1926 
     64 N         -82.0499   25.6595  -74.7774 N.am      2 UNK        -0.4687 
     65 C         -81.0734   26.1102  -73.9747 C.2       1 UNK         0.5165 
     66 O         -79.8822   25.8858  -74.1758 O.2       1 UNK        -0.5079 
     67 H67       -85.7160   27.8997  -73.8432 H         1 UNK         0.0900 
     68 H68       -85.3967   29.1053  -72.5933 H         1 UNK         0.0900 
     69 H69       -85.4114   27.3898  -72.1811 H         1 UNK         0.0900 
     70 H70       -83.3450   26.5708  -71.9021 H         1 UNK         0.2959 
     71 H71       -81.0235   27.9528  -72.9937 H         1 UNK         0.1079 
     72 H72       -81.3093   25.6154  -71.0489 H         1 UNK         0.0837 
     73 H73       -79.7572   26.1469  -71.6325 H         1 UNK         0.0837 
     74 H74       -78.8131   28.7540  -69.1264 H         1 UNK         0.0685 
     75 H75       -78.5691   27.0677  -69.5046 H         1 UNK         0.0685 
     76 H76       -79.6303   29.6531  -72.0396 H         1 UNK         0.1434 
     77 H77       -75.8636   29.5535  -74.0805 H         1 UNK         0.1329 
     78 H78       -76.3980   27.3207  -70.4656 H         1 UNK         0.1335 
     79 H79       -74.5720   26.8065  -72.6301 H         1 UNK         0.0680 
     80 H80       -74.0185   28.3453  -73.2161 H         1 UNK         0.0680 
     81 H81       -73.4446   30.2824  -71.8782 H         1 UNK         0.1032 
     82 H82       -73.1222   30.3590  -70.1782 H         1 UNK         0.1032 
     83 H83       -71.1207   30.8044  -71.6464 H         1 UNK         0.0461 
     84 H84       -69.7453   27.7436  -70.8650 H         1 UNK         0.3453 
     85 H85       -69.2185   28.1823  -69.2586 H         1 UNK         0.3453 
     86 H86       -71.7995   28.2968  -72.8256 H         1 UNK         0.2984 
     87 H87       -69.2307   28.5037  -75.2487 H         1 UNK         0.0554 
     88 H88       -68.3859   26.7803  -73.6476 H         1 UNK         0.0847 
     89 H89       -69.2430   26.0388  -74.9868 H         1 UNK         0.0847 
     90 H90       -70.0198   26.1768  -73.4093 H         1 UNK         0.0847 
     91 H91       -71.6431   26.9819  -75.1326 H         1 UNK         0.3141 
     92 H92       -73.9650   28.6427  -75.5872 H         1 UNK         0.0743 
     93 H93       -73.7141   30.5176  -77.1701 H         1 UNK         0.0784 
     94 H94       -73.0076   29.4541  -78.3776 H         1 UNK         0.0784 
     95 H95       -74.6892   29.2580  -77.8927 H         1 UNK         0.0784 
     96 H96       -74.0832   26.5683  -76.3339 H         1 UNK         0.3213 
     97 H97       -72.6114   24.7442  -79.0337 H         1 UNK         0.0855 
     98 H98       -71.4678   24.1711  -76.9020 H         1 UNK         0.0814 
     99 H99       -72.7794   23.0513  -77.2297 H         1 UNK         0.0814 
    100 H100      -72.9802   24.3126  -76.0172 H         1 UNK         0.0814 
    101 H101      -75.0464   24.8384  -77.3312 H         1 UNK         0.3105 
    102 H102      -77.1541   25.6065  -80.0809 H         1 UNK         0.0547 
    103 H103      -76.9502   23.1044  -80.2270 H         1 UNK         0.0837 
    104 H104      -76.9982   22.9971  -78.4720 H         1 UNK         0.0837 
    105 H105      -78.3957   23.5970  -79.3642 H         1 UNK         0.0837 
    106 H106      -77.6202   25.0522  -77.2959 H         1 UNK         0.3020 
    107 H107      -76.4142   27.9113  -75.9328 H         1 UNK         0.1245 
    108 H108      -79.0934   28.1575  -75.1797 H         1 UNK         0.0781 
    109 H109      -79.2384   28.2696  -76.9011 H         1 UNK         0.0781 
    110 H110      -79.4946   30.6032  -74.2076 H         1 UNK         0.0836 
    111 H111      -78.0652   31.6004  -74.1010 H         1 UNK         0.0836 
    112 H112      -78.3586   26.0801  -74.9199 H         1 UNK         0.3022 
    113 H113      -75.9822   23.5061  -74.1597 H         1 UNK         0.0747 
    114 H114      -75.8363   24.9957  -72.2253 H         1 UNK         0.0793 
    115 H115      -77.5144   25.4988  -72.4102 H         1 UNK         0.0793 
    116 H116      -77.1252   23.8491  -71.9319 H         1 UNK         0.0793 
    117 H117      -78.8889   24.2094  -74.1443 H         1 UNK         0.3047 
    118 H118      -79.7226   21.5459  -76.2699 H         1 UNK         0.0822 
    119 H119      -81.0607   20.6060  -74.4002 H         1 UNK         0.0807 
    120 H120      -80.0712   21.4706  -73.2226 H         1 UNK         0.0807 
    121 H121      -79.3667   20.1921  -74.2022 H         1 UNK         0.0807 
    122 H122      -81.2906   23.2068  -74.5114 H         1 UNK         0.2946 
    123 H123      -81.5661   25.9448  -76.7643 H         1 UNK         0.1144 
    124 H124      -83.9721   25.4239  -76.6823 H         1 UNK         0.0793 
    125 H125      -83.6454   23.8207  -76.0228 H         1 UNK         0.0793 
    126 H126      -83.1548   24.2208  -77.6634 H         1 UNK         0.0793 
    127 H127      -82.9965   25.8817  -74.5055 H         1 UNK         0.2896 
@<TRIPOS>BOND
     1    1    2 1    
     2    1   67 1    
     3    1   68 1    
     4    1   69 1    
     5    2    3 2    
     6    2    4 am   BACKBONE|DICT|INTERRES
     7    4    5 1    
     8    4   70 1    
     9    5    6 1    
    10    5   65 1    
    11    5   71 1    
    12    6    7 1    
    13    6   72 1    
    14    6   73 1    
    15    7    8 1    
    16    8    9 1    
    17    8   74 1    
    18    8   75 1    
    19    9   10 ar   
    20    9   14 ar   
    21   10   11 ar   
    22   10   76 1    
    23   11   12 ar   
    24   11   48 1    
    25   12   13 ar   
    26   12   77 1    
    27   13   14 ar   
    28   13   15 1    
    29   14   78 1    
    30   15   16 1    
    31   15   79 1    
    32   15   80 1    
    33   16   17 1    
    34   17   18 1    
    35   17   81 1    
    36   17   82 1    
    37   18   19 1    
    38   18   22 1    
    39   18   83 1    
    40   19   20 am   BACKBONE|DICT|INTERRES
    41   19   21 2    
    42   20   84 1    
    43   20   85 1    
    44   22   23 am   BACKBONE|DICT|INTERRES
    45   22   86 1    
    46   23   24 2    
    47   23   25 1    
    48   25   26 1    
    49   25   27 1    
    50   25   87 1    
    51   26   88 1    
    52   26   89 1    
    53   26   90 1    
    54   27   28 am   BACKBONE|DICT|INTERRES
    55   27   91 1    
    56   28   29 2    
    57   28   30 1    
    58   30   31 1    
    59   30   32 1    
    60   30   92 1    
    61   31   93 1    
    62   31   94 1    
    63   31   95 1    
    64   32   33 am   BACKBONE|DICT|INTERRES
    65   32   96 1    
    66   33   34 2    
    67   33   35 1    
    68   35   36 1    
    69   35   37 1    
    70   35   97 1    
    71   36   98 1    
    72   36   99 1    
    73   36  100 1    
    74   37   38 am   BACKBONE|DICT|INTERRES
    75   37  101 1    
    76   38   39 2    
    77   38   40 1    
    78   40   41 1    
    79   40   42 1    
    80   40  102 1    
    81   41  103 1    
    82   41  104 1    
    83   41  105 1    
    84   42   43 am   BACKBONE|DICT|INTERRES
    85   42  106 1    
    86   43   44 2    
    87   43   45 1    
    88   45   46 1    
    89   45   49 1    
    90   45  107 1    
    91   46   47 1    
    92   46  108 1    
    93   46  109 1    
    94   47   48 1    
    95   48  110 1    
    96   48  111 1    
    97   49   50 am   BACKBONE|DICT|INTERRES
    98   49  112 1    
    99   50   51 2    
   100   50   52 1    
   101   52   53 1    
   102   52   54 1    
   103   52  113 1    
   104   53  114 1    
   105   53  115 1    
   106   53  116 1    
   107   54   55 am   BACKBONE|DICT|INTERRES
   108   54  117 1    
   109   55   56 2    
   110   55   57 1    
   111   57   58 1    
   112   57   59 1    
   113   57  118 1    
   114   58  119 1    
   115   58  120 1    
   116   58  121 1    
   117   59   60 am   BACKBONE|DICT|INTERRES
   118   59  122 1    
   119   60   61 2    
   120   60   62 1    
   121   62   63 1    
   122   62   64 1    
   123   62  123 1    
   124   63  124 1    
   125   63  125 1    
   126   63  126 1    
   127   64   65 am   BACKBONE|DICT|INTERRES
   128   64  127 1    
   129   65   66 2    
@<TRIPOS>SUBSTRUCTURE
     1 UNK         1 GROUP             0       ****    0 ROOT    
