@<TRIPOS>MOLECULE
3R135
127   129    1
SMALL
USER_CHARGES


@<TRIPOS>ATOM
      1 CA        -82.8056   29.2645  -75.0345 C.3       0 UNK        -0.1998 
      2 C         -82.6459   28.0515  -74.1309 C.2       0 UNK         0.4909 
      3 O         -83.6385   27.4177  -73.7729 O.2       0 UNK        -0.5240 
      4 N         -81.3992   27.7133  -73.7746 N.am      1 UNK        -0.4739 
      5 CA        -80.9713   26.6191  -72.8862 C.3       1 UNK         0.0864 
      6 C6        -81.5817   26.7110  -71.4623 C.3       11 UNK        -0.0881 
      7 S7        -80.4060   26.1764  -70.1744 S.3       11 UNK        -0.2682 
      8 C8        -79.7307   27.7721  -69.6116 C.3       11 UNK         0.0289 
      9 C9        -78.7475   28.3664  -70.6120 C.ar      11 UNK        -0.0687 
     10 C10       -79.1794   29.2830  -71.5772 C.ar      11 UNK        -0.0823 
     11 C11       -78.2751   29.8533  -72.4804 C.ar      11 UNK        -0.0830 
     12 C12       -76.9197   29.5174  -72.3847 C.ar      11 UNK        -0.1021 
     13 C13       -76.4757   28.5988  -71.4295 C.ar      11 UNK        -0.0753 
     14 C14       -77.3947   28.0208  -70.5503 C.ar      11 UNK        -0.0933 
     15 C15       -74.9987   28.2542  -71.3373 C.3       11 UNK         0.0166 
     16 S16       -74.0885   29.5845  -70.4925 S.3       11 UNK        -0.2615 
     17 C17       -72.3629   29.0036  -70.6119 C.3       11 UNK        -0.0865 
     18 CA        -71.6033   29.6536  -71.7994 C.3       10 UNK         0.0862 
     19 C         -70.0677   29.4105  -71.6913 C.2       10 UNK         0.5551 
     20 N         -69.4111   28.7758  -72.6558 N.am      10 UNK        -0.7319 
     21 O         -69.4550   29.8170  -70.7070 O.2       10 UNK        -0.5018 
     22 N         -72.1913   29.2448  -73.0818 N.am      10 UNK        -0.4509 
     23 C         -72.0971   29.9106  -74.2381 C.2       10 UNK         0.4899 
     24 O         -71.5746   31.0201  -74.3528 O.2       10 UNK        -0.4839 
     25 CA        -72.6847   29.1926  -75.4717 C.3       9 UNK         0.0222 
     26 CB        -72.0920   29.7005  -76.8021 C.3       9 UNK        -0.1966 
     27 N         -72.5918   27.7265  -75.3902 N.am      9 UNK        -0.4218 
     28 C         -71.4757   26.9939  -75.2409 C.2       9 UNK         0.5020 
     29 O         -70.3437   27.4712  -75.1568 O.2       9 UNK        -0.5274 
     30 CA        -71.6530   25.4759  -75.1260 C.3       8 UNK         0.0270 
     31 CB        -72.0369   25.0863  -73.6872 C.3       8 UNK        -0.1976 
     32 N         -72.6708   24.9896  -76.0597 N.am      8 UNK        -0.4313 
     33 C         -72.4011   24.3128  -77.1831 C.2       8 UNK         0.5041 
     34 O         -71.2650   24.0040  -77.5468 O.2       8 UNK        -0.5577 
     35 CA        -73.5984   23.8914  -78.0476 C.3       7 UNK         0.0284 
     36 CB        -74.2638   22.6299  -77.4724 C.3       7 UNK        -0.1958 
     37 N         -74.6048   24.9411  -78.2143 N.am      7 UNK        -0.4454 
     38 C         -74.4399   26.0486  -78.9523 C.2       7 UNK         0.5089 
     39 O         -73.3826   26.3569  -79.5022 O.2       7 UNK        -0.5125 
     40 CA        -75.6691   26.9535  -79.1285 C.3       6 UNK         0.0408 
     41 CB        -76.6509   26.3364  -80.1385 C.3       6 UNK        -0.1791 
     42 N         -76.3546   27.1653  -77.8542 N.am      6 UNK        -0.4762 
     43 C         -76.2516   28.2743  -77.1069 C.2       6 UNK         0.5007 
     44 O         -75.6323   29.2774  -77.4601 O.2       6 UNK        -0.5032 
     45 CA        -76.9309   28.2605  -75.7174 C.3       5 UNK         0.0783 
     46 C46       -78.2359   29.1023  -75.6893 C.3       11 UNK        -0.0857 
     47 S47       -77.9298   30.8115  -75.1309 S.3       11 UNK        -0.2512 
     48 C48       -78.7799   30.8649  -73.5109 C.3       11 UNK         0.0225 
     49 N         -77.1538   26.9083  -75.1980 N.am      5 UNK        -0.4615 
     50 C         -76.1806   26.0657  -74.8336 C.2       4 UNK         0.5053 
     51 O         -74.9810   26.3312  -74.9093 O.2       4 UNK        -0.5105 
     52 CA        -76.6151   24.6735  -74.3559 C.3       4 UNK         0.0263 
     53 CB        -76.8310   24.6904  -72.8342 C.3       4 UNK        -0.1981 
     54 N         -77.8189   24.1533  -75.0196 N.am      4 UNK        -0.4224 
     55 C         -77.9545   23.9617  -76.3449 C.2       3 UNK         0.4895 
     56 O         -77.1035   24.3088  -77.1636 O.2       3 UNK        -0.5091 
     57 CA        -79.2376   23.2977  -76.8687 C.3       3 UNK         0.0250 
     58 CB        -78.9828   21.8208  -77.2142 C.3       3 UNK        -0.1996 
     59 N         -80.3424   23.4062  -75.9197 N.am      3 UNK        -0.4254 
     60 C         -81.6370   23.5371  -76.2168 C.2       2 UNK         0.5004 
     61 O         -82.0917   23.4988  -77.3603 O.2       2 UNK        -0.5226 
     62 CA        -82.5820   23.7858  -75.0265 C.3       2 UNK         0.0269 
     63 CB        -82.7254   22.5295  -74.1443 C.3       2 UNK        -0.1926 
     64 N         -82.2233   24.9699  -74.2283 N.am      2 UNK        -0.4687 
     65 C         -81.1233   25.2099  -73.4992 C.2       1 UNK         0.5165 
     66 O         -80.2135   24.3909  -73.3500 O.2       1 UNK        -0.5079 
     67 H67       -83.3156   28.9816  -75.9549 H         1 UNK         0.0900 
     68 H68       -83.4030   30.0267  -74.5349 H         1 UNK         0.0900 
     69 H69       -81.8460   29.7069  -75.3016 H         1 UNK         0.0900 
     70 H70       -80.6415   28.2720  -74.1367 H         1 UNK         0.2959 
     71 H71       -79.8943   26.7709  -72.7969 H         1 UNK         0.1079 
     72 H72       -81.8874   27.7343  -71.2409 H         1 UNK         0.0837 
     73 H73       -82.4960   26.1198  -71.3804 H         1 UNK         0.0837 
     74 H74       -80.5441   28.4707  -69.4100 H         1 UNK         0.0685 
     75 H75       -79.2277   27.6170  -68.6559 H         1 UNK         0.0685 
     76 H76       -80.2245   29.5579  -71.6183 H         1 UNK         0.1434 
     77 H77       -76.1992   29.9816  -73.0432 H         1 UNK         0.1329 
     78 H78       -77.0552   27.3163  -69.8033 H         1 UNK         0.1335 
     79 H79       -74.6023   28.1032  -72.3417 H         1 UNK         0.0680 
     80 H80       -74.8542   27.3152  -70.8005 H         1 UNK         0.0680 
     81 H81       -72.3350   27.9144  -70.6776 H         1 UNK         0.1032 
     82 H82       -71.8804   29.2568  -69.6657 H         1 UNK         0.1032 
     83 H83       -71.7285   30.7349  -71.7139 H         1 UNK         0.0461 
     84 H84       -68.4178   28.6381  -72.5595 H         1 UNK         0.3453 
     85 H85       -69.8822   28.4411  -73.4895 H         1 UNK         0.3453 
     86 H86       -72.6198   28.3332  -73.0982 H         1 UNK         0.2984 
     87 H87       -73.7486   29.4300  -75.4724 H         1 UNK         0.0554 
     88 H88       -72.2726   30.7684  -76.9295 H         1 UNK         0.0847 
     89 H89       -72.5466   29.1942  -77.6540 H         1 UNK         0.0847 
     90 H90       -71.0142   29.5429  -76.8519 H         1 UNK         0.0847 
     91 H91       -73.4831   27.2343  -75.3605 H         1 UNK         0.3141 
     92 H92       -70.6860   25.0173  -75.3437 H         1 UNK         0.0743 
     93 H93       -72.9889   25.5195  -73.3801 H         1 UNK         0.0784 
     94 H94       -72.1152   24.0042  -73.5812 H         1 UNK         0.0784 
     95 H95       -71.2810   25.4260  -72.9777 H         1 UNK         0.0784 
     96 H96       -73.6326   25.2339  -75.8490 H         1 UNK         0.3213 
     97 H97       -73.2136   23.6428  -79.0393 H         1 UNK         0.0855 
     98 H98       -74.6929   22.8105  -76.4866 H         1 UNK         0.0814 
     99 H99       -73.5413   21.8189  -77.3707 H         1 UNK         0.0814 
    100 H100      -75.0628   22.2720  -78.1223 H         1 UNK         0.0814 
    101 H101      -75.5258   24.7459  -77.8240 H         1 UNK         0.3105 
    102 H102      -75.3263   27.9055  -79.5395 H         1 UNK         0.0547 
    103 H103      -77.4972   26.9987  -80.3207 H         1 UNK         0.0837 
    104 H104      -77.0446   25.3791  -79.7942 H         1 UNK         0.0837 
    105 H105      -76.1640   26.1624  -81.0990 H         1 UNK         0.0837 
    106 H106      -76.8513   26.3680  -77.4744 H         1 UNK         0.3020 
    107 H107      -76.2056   28.7168  -75.0413 H         1 UNK         0.1245 
    108 H108      -78.9655   28.6574  -75.0139 H         1 UNK         0.0781 
    109 H109      -78.7267   29.1284  -76.6645 H         1 UNK         0.0781 
    110 H110      -79.8493   30.7325  -73.6819 H         1 UNK         0.0836 
    111 H111      -78.6608   31.8655  -73.0936 H         1 UNK         0.0836 
    112 H112      -78.1086   26.5917  -75.1339 H         1 UNK         0.3022 
    113 H113      -75.7975   23.9848  -74.5764 H         1 UNK         0.0747 
    114 H114      -77.0602   23.6950  -72.4536 H         1 UNK         0.0793 
    115 H115      -75.9352   25.0358  -72.3156 H         1 UNK         0.0793 
    116 H116      -77.6478   25.3541  -72.5463 H         1 UNK         0.0793 
    117 H117      -78.5749   23.9008  -74.3950 H         1 UNK         0.3047 
    118 H118      -79.5073   23.8275  -77.7850 H         1 UNK         0.0822 
    119 H119      -79.8586   21.3657  -77.6771 H         1 UNK         0.0807 
    120 H120      -78.7311   21.2379  -76.3275 H         1 UNK         0.0807 
    121 H121      -78.1557   21.7204  -77.9187 H         1 UNK         0.0807 
    122 H122      -80.1095   23.5086  -74.9366 H         1 UNK         0.2946 
    123 H123      -83.5649   23.9990  -75.4509 H         1 UNK         0.1144 
    124 H124      -81.7859   22.2458  -73.6695 H         1 UNK         0.0793 
    125 H125      -83.0585   21.6760  -74.7362 H         1 UNK         0.0793 
    126 H126      -83.4628   22.6838  -73.3566 H         1 UNK         0.0793 
    127 H127      -82.8937   25.7346  -74.2631 H         1 UNK         0.2896 
@<TRIPOS>BOND
     1    1    2 1    
     2    1   67 1    
     3    1   68 1    
     4    1   69 1    
     5    2    3 2    
     6    2    4 am   BACKBONE|DICT|INTERRES
     7    4    5 1    
     8    4   70 1    
     9    5    6 1    
    10    5   65 1    
    11    5   71 1    
    12    6    7 1    
    13    6   72 1    
    14    6   73 1    
    15    7    8 1    
    16    8    9 1    
    17    8   74 1    
    18    8   75 1    
    19    9   10 ar   
    20    9   14 ar   
    21   10   11 ar   
    22   10   76 1    
    23   11   12 ar   
    24   11   48 1    
    25   12   13 ar   
    26   12   77 1    
    27   13   14 ar   
    28   13   15 1    
    29   14   78 1    
    30   15   16 1    
    31   15   79 1    
    32   15   80 1    
    33   16   17 1    
    34   17   18 1    
    35   17   81 1    
    36   17   82 1    
    37   18   19 1    
    38   18   22 1    
    39   18   83 1    
    40   19   20 am   BACKBONE|DICT|INTERRES
    41   19   21 2    
    42   20   84 1    
    43   20   85 1    
    44   22   23 am   BACKBONE|DICT|INTERRES
    45   22   86 1    
    46   23   24 2    
    47   23   25 1    
    48   25   26 1    
    49   25   27 1    
    50   25   87 1    
    51   26   88 1    
    52   26   89 1    
    53   26   90 1    
    54   27   28 am   BACKBONE|DICT|INTERRES
    55   27   91 1    
    56   28   29 2    
    57   28   30 1    
    58   30   31 1    
    59   30   32 1    
    60   30   92 1    
    61   31   93 1    
    62   31   94 1    
    63   31   95 1    
    64   32   33 am   BACKBONE|DICT|INTERRES
    65   32   96 1    
    66   33   34 2    
    67   33   35 1    
    68   35   36 1    
    69   35   37 1    
    70   35   97 1    
    71   36   98 1    
    72   36   99 1    
    73   36  100 1    
    74   37   38 am   BACKBONE|DICT|INTERRES
    75   37  101 1    
    76   38   39 2    
    77   38   40 1    
    78   40   41 1    
    79   40   42 1    
    80   40  102 1    
    81   41  103 1    
    82   41  104 1    
    83   41  105 1    
    84   42   43 am   BACKBONE|DICT|INTERRES
    85   42  106 1    
    86   43   44 2    
    87   43   45 1    
    88   45   46 1    
    89   45   49 1    
    90   45  107 1    
    91   46   47 1    
    92   46  108 1    
    93   46  109 1    
    94   47   48 1    
    95   48  110 1    
    96   48  111 1    
    97   49   50 am   BACKBONE|DICT|INTERRES
    98   49  112 1    
    99   50   51 2    
   100   50   52 1    
   101   52   53 1    
   102   52   54 1    
   103   52  113 1    
   104   53  114 1    
   105   53  115 1    
   106   53  116 1    
   107   54   55 am   BACKBONE|DICT|INTERRES
   108   54  117 1    
   109   55   56 2    
   110   55   57 1    
   111   57   58 1    
   112   57   59 1    
   113   57  118 1    
   114   58  119 1    
   115   58  120 1    
   116   58  121 1    
   117   59   60 am   BACKBONE|DICT|INTERRES
   118   59  122 1    
   119   60   61 2    
   120   60   62 1    
   121   62   63 1    
   122   62   64 1    
   123   62  123 1    
   124   63  124 1    
   125   63  125 1    
   126   63  126 1    
   127   64   65 am   BACKBONE|DICT|INTERRES
   128   64  127 1    
   129   65   66 2    
@<TRIPOS>SUBSTRUCTURE
     1 UNK         1 GROUP             0       ****    0 ROOT    
