@<TRIPOS>MOLECULE
3R135
127   129    1
SMALL
USER_CHARGES


@<TRIPOS>ATOM
      1 CA        -80.9581   25.1391  -71.8762 C.3       0 UNK        -0.1998 
      2 C         -80.4814   25.8781  -73.1161 C.2       0 UNK         0.4909 
      3 O         -79.8399   25.2747  -73.9748 O.2       0 UNK        -0.5240 
      4 N         -80.7977   27.1773  -73.2229 N.am      1 UNK        -0.4739 
      5 CA        -80.3920   28.0838  -74.3127 C.3       1 UNK         0.0864 
      6 C6        -78.8536   28.3611  -74.3132 C.3       11 UNK        -0.0881 
      7 S7        -78.4608   30.0216  -73.6702 S.3       11 UNK        -0.2682 
      8 C8        -78.6651   29.7881  -71.8753 C.3       11 UNK         0.0289 
      9 C9        -77.4935   29.0386  -71.2613 C.ar      11 UNK        -0.0687 
     10 C10       -77.6041   27.6848  -70.9351 C.ar      11 UNK        -0.0823 
     11 C11       -76.5271   27.0082  -70.3566 C.ar      11 UNK        -0.0830 
     12 C12       -75.3293   27.6924  -70.1247 C.ar      11 UNK        -0.1021 
     13 C13       -75.2010   29.0493  -70.4407 C.ar      11 UNK        -0.0753 
     14 C14       -76.3019   29.7165  -70.9951 C.ar      11 UNK        -0.0933 
     15 C15       -73.8709   29.7425  -70.1271 C.3       11 UNK         0.0166 
     16 S16       -73.7432   31.5020  -70.6134 S.3       11 UNK        -0.2615 
     17 C17       -73.0487   31.4081  -72.3014 C.3       11 UNK        -0.0865 
     18 CA        -74.1060   31.2830  -73.4393 C.3       10 UNK         0.0862 
     19 C         -74.8623   32.6082  -73.7743 C.2       10 UNK         0.5551 
     20 N         -75.3240   32.8004  -75.0044 N.am      10 UNK        -0.7319 
     21 O         -75.0558   33.4660  -72.9170 O.2       10 UNK        -0.5018 
     22 N         -73.5520   30.5793  -74.6070 N.am      10 UNK        -0.4509 
     23 C         -72.5490   31.0142  -75.3835 C.2       10 UNK         0.4899 
     24 O         -71.9915   32.1043  -75.2462 O.2       10 UNK        -0.4839 
     25 CA        -72.0878   30.0400  -76.4840 C.3       9 UNK         0.0222 
     26 CB        -70.7847   30.4817  -77.1840 C.3       9 UNK        -0.1966 
     27 N         -71.9824   28.6609  -75.9904 N.am      9 UNK        -0.4218 
     28 C         -71.1850   28.2045  -75.0071 C.2       9 UNK         0.5020 
     29 O         -70.3686   28.9045  -74.4063 O.2       9 UNK        -0.5274 
     30 CA        -71.3257   26.7255  -74.5925 C.3       8 UNK         0.0270 
     31 CB        -71.8868   26.6239  -73.1626 C.3       8 UNK        -0.1976 
     32 N         -72.1725   25.9466  -75.5007 N.am      8 UNK        -0.4313 
     33 C         -71.7902   25.5255  -76.7172 C.2       8 UNK         0.5041 
     34 O         -70.6435   25.6533  -77.1476 O.2       8 UNK        -0.5577 
     35 CA        -72.8572   24.8875  -77.6296 C.3       7 UNK         0.0284 
     36 CB        -72.6762   23.3621  -77.6780 C.3       7 UNK        -0.1958 
     37 N         -74.2388   25.2029  -77.2507 N.am      7 UNK        -0.4454 
     38 C         -74.7748   26.4349  -77.2437 C.2       7 UNK         0.5089 
     39 O         -74.1656   27.4408  -77.6082 O.2       7 UNK        -0.5125 
     40 CA        -76.1978   26.5913  -76.6712 C.3       6 UNK         0.0408 
     41 CB        -77.2230   26.5986  -77.8135 C.3       6 UNK        -0.1791 
     42 N         -76.5678   25.5596  -75.6959 N.am      6 UNK        -0.4762 
     43 C         -75.8824   25.2687  -74.5767 C.2       6 UNK         0.5007 
     44 O         -74.9020   25.9131  -74.2050 O.2       6 UNK        -0.5032 
     45 CA        -76.2868   23.9961  -73.7987 C.3       5 UNK         0.0783 
     46 C46       -76.9969   24.3278  -72.4615 C.3       11 UNK        -0.0857 
     47 S47       -75.8137   24.4209  -71.0785 S.3       11 UNK        -0.2512 
     48 C48       -76.6658   25.5515  -69.9376 C.3       11 UNK         0.0225 
     49 N         -77.0530   23.0434  -74.6122 N.am      5 UNK        -0.4615 
     50 C         -76.5708   22.4027  -75.6880 C.2       4 UNK         0.5053 
     51 O         -75.4143   22.5336  -76.0881 O.2       4 UNK        -0.5105 
     52 CA        -77.5304   21.4941  -76.4788 C.3       4 UNK         0.0263 
     53 CB        -77.2582   20.0178  -76.1484 C.3       4 UNK        -0.1981 
     54 N         -78.9567   21.7753  -76.2800 N.am      4 UNK        -0.4224 
     55 C         -79.5711   22.9340  -76.5573 C.2       3 UNK         0.4895 
     56 O         -78.9827   23.9263  -76.9939 O.2       3 UNK        -0.5091 
     57 CA        -81.0866   22.9785  -76.2982 C.3       3 UNK         0.0250 
     58 CB        -81.4766   22.2988  -74.9693 C.3       3 UNK        -0.1996 
     59 N         -81.5402   24.3662  -76.2531 N.am      3 UNK        -0.4254 
     60 C         -82.3864   24.9441  -77.1153 C.2       2 UNK         0.5004 
     61 O         -82.8888   24.3560  -78.0745 O.2       2 UNK        -0.5226 
     62 CA        -82.7734   26.4145  -76.8600 C.3       2 UNK         0.0269 
     63 CB        -84.2954   26.5517  -76.6758 C.3       2 UNK        -0.1926 
     64 N         -82.1114   26.9737  -75.6777 N.am      2 UNK        -0.4687 
     65 C         -80.9707   27.6770  -75.6926 C.2       1 UNK         0.5165 
     66 O         -80.4066   28.0152  -76.7335 O.2       1 UNK        -0.5079 
     67 H67       -80.1104   24.6894  -71.3601 H         1 UNK         0.0900 
     68 H68       -81.4686   25.8010  -71.1770 H         1 UNK         0.0900 
     69 H69       -81.6470   24.3431  -72.1570 H         1 UNK         0.0900 
     70 H70       -81.3568   27.6054  -72.4973 H         1 UNK         0.2959 
     71 H71       -80.9094   29.0218  -74.1045 H         1 UNK         0.1079 
     72 H72       -78.4182   28.3070  -75.3111 H         1 UNK         0.0837 
     73 H73       -78.3032   27.6148  -73.7394 H         1 UNK         0.0837 
     74 H74       -78.7495   30.7691  -71.4053 H         1 UNK         0.0685 
     75 H75       -79.6057   29.2759  -71.6706 H         1 UNK         0.0685 
     76 H76       -78.5329   27.1637  -71.1179 H         1 UNK         0.1434 
     77 H77       -74.4957   27.1658  -69.6795 H         1 UNK         0.1329 
     78 H78       -76.2502   30.7693  -71.2306 H         1 UNK         0.1335 
     79 H79       -73.0533   29.1786  -70.5784 H         1 UNK         0.0680 
     80 H80       -73.7146   29.6907  -69.0487 H         1 UNK         0.0680 
     81 H81       -72.3611   30.5612  -72.3319 H         1 UNK         0.1032 
     82 H82       -72.4229   32.2870  -72.4664 H         1 UNK         0.1032 
     83 H83       -74.8832   30.6065  -73.0920 H         1 UNK         0.0461 
     84 H84       -75.8186   33.6516  -75.2191 H         1 UNK         0.3453 
     85 H85       -75.1826   32.1034  -75.7173 H         1 UNK         0.3453 
     86 H86       -73.9588   29.6775  -74.8080 H         1 UNK         0.2984 
     87 H87       -72.8775   30.0337  -77.2366 H         1 UNK         0.0554 
     88 H88       -70.9078   31.4564  -77.6576 H         1 UNK         0.0847 
     89 H89       -70.4954   29.7774  -77.9639 H         1 UNK         0.0847 
     90 H90       -69.9540   30.5657  -76.4827 H         1 UNK         0.0847 
     91 H91       -72.6237   28.0072  -76.4291 H         1 UNK         0.3141 
     92 H92       -70.3249   26.2886  -74.5952 H         1 UNK         0.0743 
     93 H93       -72.8500   27.1271  -73.0680 H         1 UNK         0.0784 
     94 H94       -72.0191   25.5860  -72.8564 H         1 UNK         0.0784 
     95 H95       -71.2100   27.0894  -72.4449 H         1 UNK         0.0784 
     96 H96       -73.1358   25.8104  -75.2070 H         1 UNK         0.3213 
     97 H97       -72.6972   25.2820  -78.6353 H         1 UNK         0.0855 
     98 H98       -72.7971   22.9111  -76.6923 H         1 UNK         0.0814 
     99 H99       -71.6798   23.0986  -78.0354 H         1 UNK         0.0814 
    100 H100      -73.3955   22.8954  -78.3512 H         1 UNK         0.0814 
    101 H101      -74.7978   24.4290  -76.9075 H         1 UNK         0.3105 
    102 H102      -76.2414   27.5541  -76.1589 H         1 UNK         0.0547 
    103 H103      -78.2363   26.7317  -77.4376 H         1 UNK         0.0837 
    104 H104      -77.2018   25.6664  -78.3796 H         1 UNK         0.0837 
    105 H105      -77.0256   27.4122  -78.5126 H         1 UNK         0.0837 
    106 H106      -77.3651   24.9792  -75.9367 H         1 UNK         0.3020 
    107 H107      -75.3478   23.4853  -73.5712 H         1 UNK         0.1245 
    108 H108      -77.7219   23.5543  -72.2035 H         1 UNK         0.0781 
    109 H109      -77.5657   25.2557  -72.5310 H         1 UNK         0.0781 
    110 H110      -76.2402   25.4258  -68.9409 H         1 UNK         0.0836 
    111 H111      -77.7154   25.2651  -69.8541 H         1 UNK         0.0836 
    112 H112      -78.0255   22.9217  -74.3708 H         1 UNK         0.3022 
    113 H113      -77.3139   21.6522  -77.5374 H         1 UNK         0.0747 
    114 H114      -77.8506   19.3530  -76.7774 H         1 UNK         0.0793 
    115 H115      -76.2095   19.7667  -76.3154 H         1 UNK         0.0793 
    116 H116      -77.4858   19.7886  -75.1065 H         1 UNK         0.0793 
    117 H117      -79.5150   21.0138  -75.9223 H         1 UNK         0.3047 
    118 H118      -81.5696   22.4437  -77.1185 H         1 UNK         0.0822 
    119 H119      -82.5354   22.4408  -74.7516 H         1 UNK         0.0807 
    120 H120      -80.9104   22.7000  -74.1277 H         1 UNK         0.0807 
    121 H121      -81.3060   21.2224  -75.0007 H         1 UNK         0.0807 
    122 H122      -81.0824   24.9404  -75.5526 H         1 UNK         0.2946 
    123 H123      -82.4860   26.9784  -77.7506 H         1 UNK         0.1144 
    124 H124      -84.6522   25.9782  -75.8195 H         1 UNK         0.0793 
    125 H125      -84.8318   26.1924  -77.5552 H         1 UNK         0.0793 
    126 H126      -84.5843   27.5924  -76.5276 H         1 UNK         0.0793 
    127 H127      -82.5164   26.7448  -74.7810 H         1 UNK         0.2896 
@<TRIPOS>BOND
     1    1    2 1    
     2    1   67 1    
     3    1   68 1    
     4    1   69 1    
     5    2    3 2    
     6    2    4 am   BACKBONE|DICT|INTERRES
     7    4    5 1    
     8    4   70 1    
     9    5    6 1    
    10    5   65 1    
    11    5   71 1    
    12    6    7 1    
    13    6   72 1    
    14    6   73 1    
    15    7    8 1    
    16    8    9 1    
    17    8   74 1    
    18    8   75 1    
    19    9   10 ar   
    20    9   14 ar   
    21   10   11 ar   
    22   10   76 1    
    23   11   12 ar   
    24   11   48 1    
    25   12   13 ar   
    26   12   77 1    
    27   13   14 ar   
    28   13   15 1    
    29   14   78 1    
    30   15   16 1    
    31   15   79 1    
    32   15   80 1    
    33   16   17 1    
    34   17   18 1    
    35   17   81 1    
    36   17   82 1    
    37   18   19 1    
    38   18   22 1    
    39   18   83 1    
    40   19   20 am   BACKBONE|DICT|INTERRES
    41   19   21 2    
    42   20   84 1    
    43   20   85 1    
    44   22   23 am   BACKBONE|DICT|INTERRES
    45   22   86 1    
    46   23   24 2    
    47   23   25 1    
    48   25   26 1    
    49   25   27 1    
    50   25   87 1    
    51   26   88 1    
    52   26   89 1    
    53   26   90 1    
    54   27   28 am   BACKBONE|DICT|INTERRES
    55   27   91 1    
    56   28   29 2    
    57   28   30 1    
    58   30   31 1    
    59   30   32 1    
    60   30   92 1    
    61   31   93 1    
    62   31   94 1    
    63   31   95 1    
    64   32   33 am   BACKBONE|DICT|INTERRES
    65   32   96 1    
    66   33   34 2    
    67   33   35 1    
    68   35   36 1    
    69   35   37 1    
    70   35   97 1    
    71   36   98 1    
    72   36   99 1    
    73   36  100 1    
    74   37   38 am   BACKBONE|DICT|INTERRES
    75   37  101 1    
    76   38   39 2    
    77   38   40 1    
    78   40   41 1    
    79   40   42 1    
    80   40  102 1    
    81   41  103 1    
    82   41  104 1    
    83   41  105 1    
    84   42   43 am   BACKBONE|DICT|INTERRES
    85   42  106 1    
    86   43   44 2    
    87   43   45 1    
    88   45   46 1    
    89   45   49 1    
    90   45  107 1    
    91   46   47 1    
    92   46  108 1    
    93   46  109 1    
    94   47   48 1    
    95   48  110 1    
    96   48  111 1    
    97   49   50 am   BACKBONE|DICT|INTERRES
    98   49  112 1    
    99   50   51 2    
   100   50   52 1    
   101   52   53 1    
   102   52   54 1    
   103   52  113 1    
   104   53  114 1    
   105   53  115 1    
   106   53  116 1    
   107   54   55 am   BACKBONE|DICT|INTERRES
   108   54  117 1    
   109   55   56 2    
   110   55   57 1    
   111   57   58 1    
   112   57   59 1    
   113   57  118 1    
   114   58  119 1    
   115   58  120 1    
   116   58  121 1    
   117   59   60 am   BACKBONE|DICT|INTERRES
   118   59  122 1    
   119   60   61 2    
   120   60   62 1    
   121   62   63 1    
   122   62   64 1    
   123   62  123 1    
   124   63  124 1    
   125   63  125 1    
   126   63  126 1    
   127   64   65 am   BACKBONE|DICT|INTERRES
   128   64  127 1    
   129   65   66 2    
@<TRIPOS>SUBSTRUCTURE
     1 UNK         1 GROUP             0       ****    0 ROOT    
