@<TRIPOS>MOLECULE
3R135
127   129    1
SMALL
USER_CHARGES


@<TRIPOS>ATOM
      1 CA        -84.5292   28.9642  -73.5754 C.3       0 UNK        -0.1998 
      2 C         -83.1163   29.3691  -73.9688 C.2       0 UNK         0.4909 
      3 O         -82.9427   30.1731  -74.8858 O.2       0 UNK        -0.5240 
      4 N         -82.1078   28.8262  -73.2758 N.am      1 UNK        -0.4739 
      5 CA        -80.6853   29.0516  -73.5552 C.3       1 UNK         0.0864 
      6 C6        -79.7973   28.6179  -72.3674 C.3       11 UNK        -0.0881 
      7 S7        -80.0146   29.7116  -70.9237 S.3       11 UNK        -0.2682 
      8 C8        -79.6407   28.5813  -69.5438 C.3       11 UNK         0.0289 
      9 C9        -78.2945   27.8934  -69.7223 C.ar      11 UNK        -0.0687 
     10 C10       -78.2351   26.5198  -69.9726 C.ar      11 UNK        -0.0823 
     11 C11       -77.0098   25.8806  -70.1840 C.ar      11 UNK        -0.0830 
     12 C12       -75.8314   26.6368  -70.1200 C.ar      11 UNK        -0.1021 
     13 C13       -75.8802   28.0156  -69.9001 C.ar      11 UNK        -0.0753 
     14 C14       -77.1122   28.6358  -69.6783 C.ar      11 UNK        -0.0933 
     15 C15       -74.6049   28.8420  -69.9617 C.3       11 UNK         0.0166 
     16 S16       -74.0645   29.0955  -71.6850 S.3       11 UNK        -0.2615 
     17 C17       -75.5062   29.9764  -72.3860 C.3       11 UNK        -0.0865 
     18 CA        -75.2718   30.5893  -73.7915 C.3       10 UNK         0.0862 
     19 C         -74.3153   31.8156  -73.7506 C.2       10 UNK         0.5551 
     20 N         -74.8107   32.9660  -73.3136 N.am      10 UNK        -0.7319 
     21 O         -73.1334   31.7343  -74.0786 O.2       10 UNK        -0.5018 
     22 N         -74.8834   29.5608  -74.7662 N.am      10 UNK        -0.4509 
     23 C         -74.8996   29.7136  -76.0967 C.2       10 UNK         0.4899 
     24 O         -75.3250   30.7228  -76.6610 O.2       10 UNK        -0.4839 
     25 CA        -74.4044   28.5203  -76.9384 C.3       9 UNK         0.0222 
     26 CB        -73.9672   28.9185  -78.3636 C.3       9 UNK        -0.1966 
     27 N         -73.3752   27.7208  -76.2668 N.am      9 UNK        -0.4218 
     28 C         -72.1297   28.0906  -75.9291 C.2       9 UNK         0.5020 
     29 O         -71.6375   29.1907  -76.1794 O.2       9 UNK        -0.5274 
     30 CA        -71.2844   27.0427  -75.1889 C.3       8 UNK         0.0270 
     31 CB        -71.6257   27.0379  -73.6891 C.3       8 UNK        -0.1976 
     32 N         -71.5030   25.7046  -75.7416 N.am      8 UNK        -0.4313 
     33 C         -70.7264   25.1204  -76.6636 C.2       8 UNK         0.5041 
     34 O         -69.6823   25.6125  -77.0941 O.2       8 UNK        -0.5577 
     35 CA        -71.1844   23.7508  -77.2017 C.3       7 UNK         0.0284 
     36 CB        -70.5480   22.6136  -76.3860 C.3       7 UNK        -0.1958 
     37 N         -72.6407   23.5845  -77.2085 N.am      7 UNK        -0.4454 
     38 C         -73.4806   24.2557  -78.0091 C.2       7 UNK         0.5089 
     39 O         -73.1121   25.0372  -78.8858 O.2       7 UNK        -0.5125 
     40 CA        -74.9901   24.0335  -77.7895 C.3       6 UNK         0.0408 
     41 CB        -75.5009   22.9564  -78.7606 C.3       6 UNK        -0.1791 
     42 N         -75.3973   23.6796  -76.4204 N.am      6 UNK        -0.4762 
     43 C         -75.0941   24.3578  -75.3018 C.2       6 UNK         0.5007 
     44 O         -74.3240   25.3189  -75.2782 O.2       6 UNK        -0.5032 
     45 CA        -75.7999   23.9066  -74.0131 C.3       5 UNK         0.0783 
     46 C46       -75.2757   24.6411  -72.7499 C.3       11 UNK        -0.0857 
     47 S47       -75.4999   23.6801  -71.2146 S.3       11 UNK        -0.2512 
     48 C48       -77.0252   24.3822  -70.4927 C.3       11 UNK         0.0225 
     49 N         -77.2229   24.1419  -74.2404 N.am      5 UNK        -0.4615 
     50 C         -78.2163   23.3066  -73.9172 C.2       4 UNK         0.5053 
     51 O         -78.0596   22.2576  -73.2931 O.2       4 UNK        -0.5105 
     52 CA        -79.6287   23.6945  -74.3977 C.3       4 UNK         0.0263 
     53 CB        -80.3307   24.5525  -73.3334 C.3       4 UNK        -0.1981 
     54 N         -79.6286   24.4112  -75.6788 N.am      4 UNK        -0.4224 
     55 C         -79.1323   23.9207  -76.8264 C.2       3 UNK         0.4895 
     56 O         -78.7337   22.7622  -76.9523 O.2       3 UNK        -0.5091 
     57 CA        -79.0207   24.8674  -78.0367 C.3       3 UNK         0.0250 
     58 CB        -80.0598   24.4952  -79.1069 C.3       3 UNK        -0.1996 
     59 N         -79.1369   26.2974  -77.7396 N.am      3 UNK        -0.4254 
     60 C         -78.3595   27.0151  -76.9158 C.2       2 UNK         0.5004 
     61 O         -77.4546   26.5377  -76.2302 O.2       2 UNK        -0.5226 
     62 CA        -78.6687   28.5215  -76.8112 C.3       2 UNK         0.0269 
     63 CB        -79.5871   29.0537  -77.9351 C.3       2 UNK        -0.1926 
     64 N         -79.2191   28.9050  -75.5052 N.am      2 UNK        -0.4687 
     65 C         -80.2492   28.3415  -74.8538 C.2       1 UNK         0.5165 
     66 O         -80.8287   27.3149  -75.2223 O.2       1 UNK        -0.5079 
     67 H67       -85.1036   29.8425  -73.2821 H         1 UNK         0.0900 
     68 H68       -85.0324   28.4933  -74.4194 H         1 UNK         0.0900 
     69 H69       -84.5350   28.2616  -72.7422 H         1 UNK         0.0900 
     70 H70       -82.3092   28.1644  -72.5408 H         1 UNK         0.2959 
     71 H71       -80.5481   30.1242  -73.7131 H         1 UNK         0.1079 
     72 H72       -78.7388   28.6388  -72.6341 H         1 UNK         0.0837 
     73 H73       -80.0206   27.5885  -72.0839 H         1 UNK         0.0837 
     74 H74       -79.6373   29.1467  -68.6110 H         1 UNK         0.0685 
     75 H75       -80.4450   27.8490  -69.4572 H         1 UNK         0.0685 
     76 H76       -79.1511   25.9465  -70.0212 H         1 UNK         0.1434 
     77 H77       -74.8698   26.1723  -70.2848 H         1 UNK         0.1329 
     78 H78       -77.1586   29.7035  -69.5129 H         1 UNK         0.1335 
     79 H79       -73.8119   28.3347  -69.4105 H         1 UNK         0.0680 
     80 H80       -74.7450   29.8107  -69.4793 H         1 UNK         0.0680 
     81 H81       -76.3335   29.2678  -72.4429 H         1 UNK         0.1032 
     82 H82       -75.8295   30.7467  -71.6834 H         1 UNK         0.1032 
     83 H83       -76.2381   30.9698  -74.1294 H         1 UNK         0.0461 
     84 H84       -74.2061   33.7714  -73.2675 H         1 UNK         0.3453 
     85 H85       -75.7766   33.0508  -73.0380 H         1 UNK         0.3453 
     86 H86       -74.4889   28.7167  -74.3790 H         1 UNK         0.2984 
     87 H87       -75.2611   27.8546  -77.0425 H         1 UNK         0.0554 
     88 H88       -74.7935   29.3682  -78.9152 H         1 UNK         0.0847 
     89 H89       -73.6345   28.0497  -78.9320 H         1 UNK         0.0847 
     90 H90       -73.1536   29.6441  -78.3503 H         1 UNK         0.0847 
     91 H91       -73.6909   26.8001  -75.9619 H         1 UNK         0.3141 
     92 H92       -70.2338   27.3223  -75.2935 H         1 UNK         0.0743 
     93 H93       -71.4616   28.0232  -73.2503 H         1 UNK         0.0784 
     94 H94       -72.6674   26.7710  -73.5071 H         1 UNK         0.0784 
     95 H95       -70.9999   26.3321  -73.1431 H         1 UNK         0.0784 
     96 H96       -72.3767   25.2535  -75.4907 H         1 UNK         0.3213 
     97 H97       -70.8318   23.6702  -78.2324 H         1 UNK         0.0855 
     98 H98       -70.8752   22.6286  -75.3456 H         1 UNK         0.0814 
     99 H99       -69.4601   22.6967  -76.3859 H         1 UNK         0.0814 
    100 H100      -70.7957   21.6376  -76.8037 H         1 UNK         0.0814 
    101 H101      -73.0366   22.9501  -76.5304 H         1 UNK         0.3105 
    102 H102      -75.4886   24.9750  -78.0297 H         1 UNK         0.0547 
    103 H103      -76.5809   22.8304  -78.6964 H         1 UNK         0.0837 
    104 H104      -75.2700   23.2207  -79.7937 H         1 UNK         0.0837 
    105 H105      -75.0416   21.9871  -78.5631 H         1 UNK         0.0837 
    106 H106      -76.0611   22.9206  -76.3436 H         1 UNK         0.3020 
    107 H107      -75.6022   22.8368  -73.9120 H         1 UNK         0.1245 
    108 H108      -75.7261   25.6312  -72.6672 H         1 UNK         0.0781 
    109 H109      -74.1997   24.8130  -72.8138 H         1 UNK         0.0781 
    110 H110      -77.2385   23.8453  -69.5677 H         1 UNK         0.0836 
    111 H111      -77.8521   24.1627  -71.1678 H         1 UNK         0.0836 
    112 H112      -77.4354   24.9619  -74.8016 H         1 UNK         0.3022 
    113 H113      -80.1993   22.7735  -74.5335 H         1 UNK         0.0747 
    114 H114      -81.3470   24.8087  -73.6335 H         1 UNK         0.0793 
    115 H115      -80.3957   24.0213  -72.3829 H         1 UNK         0.0793 
    116 H116      -79.7900   25.4815  -73.1524 H         1 UNK         0.0793 
    117 H117      -79.9518   25.3728  -75.6637 H         1 UNK         0.3047 
    118 H118      -78.0273   24.7170  -78.4614 H         1 UNK         0.0822 
    119 H119      -79.9769   23.4435  -79.3853 H         1 UNK         0.0807 
    120 H120      -79.9210   25.0787  -80.0173 H         1 UNK         0.0807 
    121 H121      -81.0785   24.6590  -78.7529 H         1 UNK         0.0807 
    122 H122      -79.8810   26.7871  -78.2148 H         1 UNK         0.2946 
    123 H123      -77.7079   29.0280  -76.9093 H         1 UNK         0.1144 
    124 H124      -79.6675   30.1399  -77.8871 H         1 UNK         0.0793 
    125 H125      -80.5988   28.6513  -77.8688 H         1 UNK         0.0793 
    126 H126      -79.1906   28.8117  -78.9224 H         1 UNK         0.0793 
    127 H127      -78.7859   29.7158  -75.0862 H         1 UNK         0.2896 
@<TRIPOS>BOND
     1    1    2 1    
     2    1   67 1    
     3    1   68 1    
     4    1   69 1    
     5    2    3 2    
     6    2    4 am   BACKBONE|DICT|INTERRES
     7    4    5 1    
     8    4   70 1    
     9    5    6 1    
    10    5   65 1    
    11    5   71 1    
    12    6    7 1    
    13    6   72 1    
    14    6   73 1    
    15    7    8 1    
    16    8    9 1    
    17    8   74 1    
    18    8   75 1    
    19    9   10 ar   
    20    9   14 ar   
    21   10   11 ar   
    22   10   76 1    
    23   11   12 ar   
    24   11   48 1    
    25   12   13 ar   
    26   12   77 1    
    27   13   14 ar   
    28   13   15 1    
    29   14   78 1    
    30   15   16 1    
    31   15   79 1    
    32   15   80 1    
    33   16   17 1    
    34   17   18 1    
    35   17   81 1    
    36   17   82 1    
    37   18   19 1    
    38   18   22 1    
    39   18   83 1    
    40   19   20 am   BACKBONE|DICT|INTERRES
    41   19   21 2    
    42   20   84 1    
    43   20   85 1    
    44   22   23 am   BACKBONE|DICT|INTERRES
    45   22   86 1    
    46   23   24 2    
    47   23   25 1    
    48   25   26 1    
    49   25   27 1    
    50   25   87 1    
    51   26   88 1    
    52   26   89 1    
    53   26   90 1    
    54   27   28 am   BACKBONE|DICT|INTERRES
    55   27   91 1    
    56   28   29 2    
    57   28   30 1    
    58   30   31 1    
    59   30   32 1    
    60   30   92 1    
    61   31   93 1    
    62   31   94 1    
    63   31   95 1    
    64   32   33 am   BACKBONE|DICT|INTERRES
    65   32   96 1    
    66   33   34 2    
    67   33   35 1    
    68   35   36 1    
    69   35   37 1    
    70   35   97 1    
    71   36   98 1    
    72   36   99 1    
    73   36  100 1    
    74   37   38 am   BACKBONE|DICT|INTERRES
    75   37  101 1    
    76   38   39 2    
    77   38   40 1    
    78   40   41 1    
    79   40   42 1    
    80   40  102 1    
    81   41  103 1    
    82   41  104 1    
    83   41  105 1    
    84   42   43 am   BACKBONE|DICT|INTERRES
    85   42  106 1    
    86   43   44 2    
    87   43   45 1    
    88   45   46 1    
    89   45   49 1    
    90   45  107 1    
    91   46   47 1    
    92   46  108 1    
    93   46  109 1    
    94   47   48 1    
    95   48  110 1    
    96   48  111 1    
    97   49   50 am   BACKBONE|DICT|INTERRES
    98   49  112 1    
    99   50   51 2    
   100   50   52 1    
   101   52   53 1    
   102   52   54 1    
   103   52  113 1    
   104   53  114 1    
   105   53  115 1    
   106   53  116 1    
   107   54   55 am   BACKBONE|DICT|INTERRES
   108   54  117 1    
   109   55   56 2    
   110   55   57 1    
   111   57   58 1    
   112   57   59 1    
   113   57  118 1    
   114   58  119 1    
   115   58  120 1    
   116   58  121 1    
   117   59   60 am   BACKBONE|DICT|INTERRES
   118   59  122 1    
   119   60   61 2    
   120   60   62 1    
   121   62   63 1    
   122   62   64 1    
   123   62  123 1    
   124   63  124 1    
   125   63  125 1    
   126   63  126 1    
   127   64   65 am   BACKBONE|DICT|INTERRES
   128   64  127 1    
   129   65   66 2    
@<TRIPOS>SUBSTRUCTURE
     1 UNK         1 GROUP             0       ****    0 ROOT    
