@<TRIPOS>MOLECULE
3R135
127   129    1
SMALL
USER_CHARGES


@<TRIPOS>ATOM
      1 CA        -74.7056   22.3239  -71.7641 C.3       0 UNK        -0.1998 
      2 C         -76.2012   22.5287  -71.5825 C.2       0 UNK         0.4909 
      3 O         -76.8247   21.8237  -70.7890 O.2       0 UNK        -0.5240 
      4 N         -76.7833   23.4873  -72.3177 N.am      1 UNK        -0.4739 
      5 CA        -78.2210   23.7950  -72.2886 C.3       1 UNK         0.0864 
      6 C6        -78.5047   25.2291  -72.8124 C.3       11 UNK        -0.0881 
      7 S7        -79.9893   25.9545  -72.0425 S.3       11 UNK        -0.2682 
      8 C8        -79.2608   27.0012  -70.7437 C.3       11 UNK         0.0289 
      9 C9        -78.7282   28.3133  -71.3009 C.ar      11 UNK        -0.0687 
     10 C10       -79.6211   29.2779  -71.7780 C.ar      11 UNK        -0.0823 
     11 C11       -79.1525   30.4982  -72.2708 C.ar      11 UNK        -0.0830 
     12 C12       -77.7795   30.7579  -72.2674 C.ar      11 UNK        -0.1021 
     13 C13       -76.8759   29.8005  -71.7989 C.ar      11 UNK        -0.0753 
     14 C14       -77.3543   28.5774  -71.3178 C.ar      11 UNK        -0.0933 
     15 C15       -75.3884   30.1117  -71.7994 C.3       11 UNK         0.0166 
     16 S16       -74.6619   29.8651  -73.4481 S.3       11 UNK        -0.2615 
     17 C17       -73.2322   30.9932  -73.3283 C.3       11 UNK        -0.0865 
     18 CA        -72.1880   30.7854  -74.4550 C.3       10 UNK         0.0862 
     19 C         -71.0890   31.8870  -74.3918 C.2       10 UNK         0.5551 
     20 N         -69.8364   31.5640  -74.0930 N.am      10 UNK        -0.7319 
     21 O         -71.3822   33.0579  -74.6201 O.2       10 UNK        -0.5018 
     22 N         -71.6849   29.4045  -74.4615 N.am      10 UNK        -0.4509 
     23 C         -71.0203   28.8104  -75.4571 C.2       10 UNK         0.4899 
     24 O         -70.7117   29.3741  -76.5071 O.2       10 UNK        -0.4839 
     25 CA        -70.6488   27.3279  -75.2628 C.3       9 UNK         0.0222 
     26 CB        -69.3021   27.1799  -74.5279 C.3       9 UNK        -0.1966 
     27 N         -71.7084   26.5171  -74.6413 N.am      9 UNK        -0.4218 
     28 C         -72.1974   26.5624  -73.3922 C.2       9 UNK         0.5020 
     29 O         -71.7536   27.3090  -72.5181 O.2       9 UNK        -0.5274 
     30 CA        -73.4220   25.6739  -73.0885 C.3       8 UNK         0.0270 
     31 CB        -74.2035   26.1687  -71.8558 C.3       8 UNK        -0.1976 
     32 N         -74.3312   25.6140  -74.2385 N.am      8 UNK        -0.4313 
     33 C         -74.3007   24.6831  -75.2024 C.2       8 UNK         0.5041 
     34 O         -73.5716   23.6934  -75.1684 O.2       8 UNK        -0.5577 
     35 CA        -75.2023   24.9102  -76.4292 C.3       7 UNK         0.0284 
     36 CB        -76.5078   24.1105  -76.2976 C.3       7 UNK        -0.1958 
     37 N         -75.5203   26.3221  -76.6721 N.am      7 UNK        -0.4454 
     38 C         -74.6212   27.2504  -77.0508 C.2       7 UNK         0.5089 
     39 O         -73.4331   26.9905  -77.2381 O.2       7 UNK        -0.5125 
     40 CA        -75.0974   28.7021  -77.2448 C.3       6 UNK         0.0408 
     41 CB        -75.0560   29.1015  -78.7309 C.3       6 UNK        -0.1791 
     42 N         -76.4386   28.9004  -76.7046 N.am      6 UNK        -0.4762 
     43 C         -77.0291   30.0415  -76.3500 C.2       6 UNK         0.5007 
     44 O         -76.5111   31.1503  -76.4941 O.2       6 UNK        -0.5032 
     45 CA        -78.4488   29.8985  -75.7426 C.3       5 UNK         0.0783 
     46 C46       -79.0874   31.2787  -75.4297 C.3       11 UNK        -0.0857 
     47 S47       -80.6576   31.1311  -74.5099 S.3       11 UNK        -0.2512 
     48 C48       -80.1295   31.5309  -72.8126 C.3       11 UNK         0.0225 
     49 N         -79.3513   29.0731  -76.5640 N.am      5 UNK        -0.4615 
     50 C         -79.2767   27.7587  -76.8160 C.2       4 UNK         0.5053 
     51 O         -78.3793   27.0234  -76.3883 O.2       4 UNK        -0.5105 
     52 CA        -80.3546   27.2091  -77.7692 C.3       4 UNK         0.0263 
     53 CB        -80.1951   27.8170  -79.1752 C.3       4 UNK        -0.1981 
     54 N         -80.3224   25.7513  -77.8986 N.am      4 UNK        -0.4224 
     55 C         -80.6766   24.8728  -76.9528 C.2       3 UNK         0.4895 
     56 O         -81.0985   25.1943  -75.8411 O.2       3 UNK        -0.5091 
     57 CA        -80.5593   23.3811  -77.3042 C.3       3 UNK         0.0250 
     58 CB        -79.9095   23.0833  -78.6755 C.3       3 UNK        -0.1996 
     59 N         -79.8180   22.7118  -76.2410 N.am      3 UNK        -0.4254 
     60 C         -79.9529   21.4299  -75.8831 C.2       2 UNK         0.5004 
     61 O         -80.7327   20.6463  -76.4266 O.2       2 UNK        -0.5226 
     62 CA        -79.0560   20.9196  -74.7398 C.3       2 UNK         0.0269 
     63 CB        -77.9465   20.0105  -75.2951 C.3       2 UNK        -0.1926 
     64 N         -78.4345   21.9891  -73.9520 N.am      2 UNK        -0.4687 
     65 C         -79.0649   22.7278  -73.0261 C.2       1 UNK         0.5165 
     66 O         -80.2529   22.5780  -72.7393 O.2       1 UNK        -0.5079 
     67 H67       -74.1527   22.9033  -71.0252 H         1 UNK         0.0900 
     68 H68       -74.3786   22.6251  -72.7583 H         1 UNK         0.0900 
     69 H69       -74.4483   21.2727  -71.6355 H         1 UNK         0.0900 
     70 H70       -76.2177   24.0452  -72.9397 H         1 UNK         0.2959 
     71 H71       -78.5260   23.7531  -71.2399 H         1 UNK         0.1079 
     72 H72       -77.6598   25.8885  -72.6090 H         1 UNK         0.0837 
     73 H73       -78.6359   25.2498  -73.8956 H         1 UNK         0.0837 
     74 H74       -78.4793   26.4467  -70.2216 H         1 UNK         0.0685 
     75 H75       -80.0283   27.2194  -69.9999 H         1 UNK         0.0685 
     76 H76       -80.6831   29.0723  -71.7750 H         1 UNK         0.1434 
     77 H77       -77.4074   31.7024  -72.6406 H         1 UNK         0.1329 
     78 H78       -76.6599   27.8378  -70.9445 H         1 UNK         0.1335 
     79 H79       -75.2421   31.1457  -71.4828 H         1 UNK         0.0680 
     80 H80       -74.8596   29.4913  -71.0742 H         1 UNK         0.0680 
     81 H81       -72.7601   30.8642  -72.3522 H         1 UNK         0.1032 
     82 H82       -73.6178   32.0147  -73.3495 H         1 UNK         0.1032 
     83 H83       -72.7019   30.9352  -75.4066 H         1 UNK         0.0461 
     84 H84       -69.1330   32.2849  -74.0576 H         1 UNK         0.3453 
     85 H85       -69.5902   30.6053  -73.9074 H         1 UNK         0.3453 
     86 H86       -71.8610   28.8549  -73.6254 H         1 UNK         0.2984 
     87 H87       -70.5205   26.9098  -76.2626 H         1 UNK         0.0554 
     88 H88       -69.0087   26.1335  -74.4452 H         1 UNK         0.0847 
     89 H89       -69.3332   27.5997  -73.5223 H         1 UNK         0.0847 
     90 H90       -68.5078   27.6970  -75.0679 H         1 UNK         0.0847 
     91 H91       -72.1893   25.9061  -75.2884 H         1 UNK         0.3141 
     92 H92       -73.0375   24.6774  -72.8641 H         1 UNK         0.0743 
     93 H93       -74.5609   27.1881  -71.9954 H         1 UNK         0.0784 
     94 H94       -75.0649   25.5402  -71.6394 H         1 UNK         0.0784 
     95 H95       -73.5746   26.1640  -70.9646 H         1 UNK         0.0784 
     96 H96       -74.9233   26.4205  -74.3817 H         1 UNK         0.3213 
     97 H97       -74.6613   24.5355  -77.3011 H         1 UNK         0.0855 
     98 H98       -77.1072   24.4569  -75.4575 H         1 UNK         0.0814 
     99 H99       -76.3042   23.0493  -76.1480 H         1 UNK         0.0814 
    100 H100      -77.1145   24.1987  -77.1986 H         1 UNK         0.0814 
    101 H101      -76.4984   26.5683  -76.5697 H         1 UNK         0.3105 
    102 H102      -74.4069   29.3391  -76.6881 H         1 UNK         0.0547 
    103 H103      -74.0605   28.9474  -79.1495 H         1 UNK         0.0837 
    104 H104      -75.7563   28.5125  -79.3241 H         1 UNK         0.0837 
    105 H105      -75.3020   30.1543  -78.8685 H         1 UNK         0.0837 
    106 H106      -77.0095   28.0696  -76.5733 H         1 UNK         0.3020 
    107 H107      -78.3089   29.3739  -74.7945 H         1 UNK         0.1245 
    108 H108      -79.2849   31.8228  -76.3551 H         1 UNK         0.0781 
    109 H109      -78.4041   31.9083  -74.8577 H         1 UNK         0.0781 
    110 H110      -81.0096   31.5742  -72.1692 H         1 UNK         0.0836 
    111 H111      -79.6902   32.5296  -72.7921 H         1 UNK         0.0836 
    112 H112      -80.1185   29.5834  -76.9761 H         1 UNK         0.3022 
    113 H113      -81.3308   27.4921  -77.3697 H         1 UNK         0.0747 
    114 H114      -80.9565   27.4404  -79.8587 H         1 UNK         0.0793 
    115 H115      -80.2964   28.9027  -79.1581 H         1 UNK         0.0793 
    116 H116      -79.2181   27.5889  -79.6041 H         1 UNK         0.0793 
    117 H117      -79.9599   25.3888  -78.7677 H         1 UNK         0.3047 
    118 H118      -81.5805   22.9939  -77.3180 H         1 UNK         0.0822 
    119 H119      -80.4793   23.5279  -79.4924 H         1 UNK         0.0807 
    120 H120      -79.8774   22.0108  -78.8682 H         1 UNK         0.0807 
    121 H121      -78.8860   23.4548  -78.7338 H         1 UNK         0.0807 
    122 H122      -79.2089   23.3016  -75.6936 H         1 UNK         0.2946 
    123 H123      -79.6887   20.3240  -74.0773 H         1 UNK         0.1144 
    124 H124      -78.3697   19.1754  -75.8553 H         1 UNK         0.0793 
    125 H125      -77.3423   19.5856  -74.4933 H         1 UNK         0.0793 
    126 H126      -77.2808   20.5501  -75.9699 H         1 UNK         0.0793 
    127 H127      -77.4476   22.1442  -74.0934 H         1 UNK         0.2896 
@<TRIPOS>BOND
     1    1    2 1    
     2    1   67 1    
     3    1   68 1    
     4    1   69 1    
     5    2    3 2    
     6    2    4 am   BACKBONE|DICT|INTERRES
     7    4    5 1    
     8    4   70 1    
     9    5    6 1    
    10    5   65 1    
    11    5   71 1    
    12    6    7 1    
    13    6   72 1    
    14    6   73 1    
    15    7    8 1    
    16    8    9 1    
    17    8   74 1    
    18    8   75 1    
    19    9   10 ar   
    20    9   14 ar   
    21   10   11 ar   
    22   10   76 1    
    23   11   12 ar   
    24   11   48 1    
    25   12   13 ar   
    26   12   77 1    
    27   13   14 ar   
    28   13   15 1    
    29   14   78 1    
    30   15   16 1    
    31   15   79 1    
    32   15   80 1    
    33   16   17 1    
    34   17   18 1    
    35   17   81 1    
    36   17   82 1    
    37   18   19 1    
    38   18   22 1    
    39   18   83 1    
    40   19   20 am   BACKBONE|DICT|INTERRES
    41   19   21 2    
    42   20   84 1    
    43   20   85 1    
    44   22   23 am   BACKBONE|DICT|INTERRES
    45   22   86 1    
    46   23   24 2    
    47   23   25 1    
    48   25   26 1    
    49   25   27 1    
    50   25   87 1    
    51   26   88 1    
    52   26   89 1    
    53   26   90 1    
    54   27   28 am   BACKBONE|DICT|INTERRES
    55   27   91 1    
    56   28   29 2    
    57   28   30 1    
    58   30   31 1    
    59   30   32 1    
    60   30   92 1    
    61   31   93 1    
    62   31   94 1    
    63   31   95 1    
    64   32   33 am   BACKBONE|DICT|INTERRES
    65   32   96 1    
    66   33   34 2    
    67   33   35 1    
    68   35   36 1    
    69   35   37 1    
    70   35   97 1    
    71   36   98 1    
    72   36   99 1    
    73   36  100 1    
    74   37   38 am   BACKBONE|DICT|INTERRES
    75   37  101 1    
    76   38   39 2    
    77   38   40 1    
    78   40   41 1    
    79   40   42 1    
    80   40  102 1    
    81   41  103 1    
    82   41  104 1    
    83   41  105 1    
    84   42   43 am   BACKBONE|DICT|INTERRES
    85   42  106 1    
    86   43   44 2    
    87   43   45 1    
    88   45   46 1    
    89   45   49 1    
    90   45  107 1    
    91   46   47 1    
    92   46  108 1    
    93   46  109 1    
    94   47   48 1    
    95   48  110 1    
    96   48  111 1    
    97   49   50 am   BACKBONE|DICT|INTERRES
    98   49  112 1    
    99   50   51 2    
   100   50   52 1    
   101   52   53 1    
   102   52   54 1    
   103   52  113 1    
   104   53  114 1    
   105   53  115 1    
   106   53  116 1    
   107   54   55 am   BACKBONE|DICT|INTERRES
   108   54  117 1    
   109   55   56 2    
   110   55   57 1    
   111   57   58 1    
   112   57   59 1    
   113   57  118 1    
   114   58  119 1    
   115   58  120 1    
   116   58  121 1    
   117   59   60 am   BACKBONE|DICT|INTERRES
   118   59  122 1    
   119   60   61 2    
   120   60   62 1    
   121   62   63 1    
   122   62   64 1    
   123   62  123 1    
   124   63  124 1    
   125   63  125 1    
   126   63  126 1    
   127   64   65 am   BACKBONE|DICT|INTERRES
   128   64  127 1    
   129   65   66 2    
@<TRIPOS>SUBSTRUCTURE
     1 UNK         1 GROUP             0       ****    0 ROOT    
