@<TRIPOS>MOLECULE
3R135
127   129    1
SMALL
USER_CHARGES


@<TRIPOS>ATOM
      1 CA        -81.7494   25.2713  -69.8656 C.3       0 UNK        -0.1998 
      2 C         -82.4518   25.9217  -71.0478 C.2       0 UNK         0.4909 
      3 O         -83.6656   25.7768  -71.1944 O.2       0 UNK        -0.5240 
      4 N         -81.6949   26.6313  -71.8943 N.am      1 UNK        -0.4739 
      5 CA        -82.1971   27.3285  -73.0896 C.3       1 UNK         0.0864 
      6 C6        -81.4404   28.6584  -73.3476 C.3       11 UNK        -0.0881 
      7 S7        -81.6642   29.8227  -71.9528 S.3       11 UNK        -0.2682 
      8 C8        -80.1681   30.8722  -72.0413 C.3       11 UNK         0.0289 
      9 C9        -78.8332   30.1945  -71.7179 C.ar      11 UNK        -0.0687 
     10 C10       -78.7406   28.8897  -71.2172 C.ar      11 UNK        -0.0823 
     11 C11       -77.4970   28.2733  -71.0481 C.ar      11 UNK        -0.0830 
     12 C12       -76.3299   29.0055  -71.2848 C.ar      11 UNK        -0.1021 
     13 C13       -76.4030   30.3296  -71.7237 C.ar      11 UNK        -0.0753 
     14 C14       -77.6543   30.9098  -71.9535 C.ar      11 UNK        -0.0933 
     15 C15       -75.1321   31.1362  -71.9410 C.3       11 UNK         0.0166 
     16 S16       -74.3604   30.7794  -73.5513 S.3       11 UNK        -0.2615 
     17 C17       -73.0372   32.0430  -73.5658 C.3       11 UNK        -0.0865 
     18 CA        -71.6101   31.5000  -73.2895 C.3       10 UNK         0.0862 
     19 C         -71.4502   30.9335  -71.8467 C.2       10 UNK         0.5551 
     20 N         -71.0929   29.6681  -71.6635 N.am      10 UNK        -0.7319 
     21 O         -71.6433   31.6634  -70.8775 O.2       10 UNK        -0.5018 
     22 N         -71.1377   30.6222  -74.3735 N.am      10 UNK        -0.4509 
     23 C         -69.8500   30.3752  -74.6458 C.2       10 UNK         0.4899 
     24 O         -68.9145   30.8700  -74.0147 O.2       10 UNK        -0.4839 
     25 CA        -69.5636   29.4030  -75.8070 C.3       9 UNK         0.0222 
     26 CB        -68.0563   29.2027  -76.0565 C.3       9 UNK        -0.1966 
     27 N         -70.1845   28.0958  -75.5798 N.am      9 UNK        -0.4218 
     28 C         -71.4615   27.7972  -75.8443 C.2       9 UNK         0.5020 
     29 O         -72.2706   28.6094  -76.2989 O.2       9 UNK        -0.5274 
     30 CA        -71.9134   26.3744  -75.4871 C.3       8 UNK         0.0270 
     31 CB        -72.4919   26.3343  -74.0619 C.3       8 UNK        -0.1976 
     32 N         -72.9146   25.8951  -76.4415 N.am      8 UNK        -0.4313 
     33 C         -72.6132   25.3677  -77.6372 C.2       8 UNK         0.5041 
     34 O         -71.4557   25.2164  -78.0334 O.2       8 UNK        -0.5577 
     35 CA        -73.7641   24.8945  -78.5473 C.3       7 UNK         0.0284 
     36 CB        -73.8374   23.3582  -78.5541 C.3       7 UNK        -0.1958 
     37 N         -75.0761   25.4240  -78.1778 N.am      7 UNK        -0.4454 
     38 C         -75.4922   26.6779  -78.3953 C.2       7 UNK         0.5089 
     39 O         -74.8390   27.5217  -79.0092 O.2       7 UNK        -0.5125 
     40 CA        -76.8631   27.0607  -77.8037 C.3       6 UNK         0.0408 
     41 CB        -77.9832   26.7916  -78.8194 C.3       6 UNK        -0.1791 
     42 N         -77.1691   26.3784  -76.5392 N.am      6 UNK        -0.4762 
     43 C         -76.4330   26.4872  -75.4221 C.2       6 UNK         0.5007 
     44 O         -75.4153   27.1703  -75.3447 O.2       6 UNK        -0.5032 
     45 CA        -76.8836   25.6743  -74.1977 C.3       5 UNK         0.0783 
     46 C46       -78.0379   26.4003  -73.4740 C.3       11 UNK        -0.0857 
     47 S47       -78.3873   25.7195  -71.8148 S.3       11 UNK        -0.2512 
     48 C48       -77.4124   26.7928  -70.6926 C.3       11 UNK         0.0225 
     49 N         -77.2308   24.3097  -74.5964 N.am      5 UNK        -0.4615 
     50 C         -76.3316   23.3608  -74.8905 C.2       4 UNK         0.5053 
     51 O         -75.1171   23.5057  -74.7560 O.2       4 UNK        -0.5105 
     52 CA        -76.8713   22.0336  -75.4547 C.3       4 UNK         0.0263 
     53 CB        -77.1748   21.0499  -74.3135 C.3       4 UNK        -0.1981 
     54 N         -78.0689   22.2012  -76.2829 N.am      4 UNK        -0.4224 
     55 C         -78.1046   22.8603  -77.4507 C.2       3 UNK         0.4895 
     56 O         -77.1119   23.3431  -77.9929 O.2       3 UNK        -0.5091 
     57 CA        -79.4892   23.0652  -78.0952 C.3       3 UNK         0.0250 
     58 CB        -79.8186   21.8996  -79.0408 C.3       3 UNK        -0.1996 
     59 N         -80.5773   23.2332  -77.1233 N.am      3 UNK        -0.4254 
     60 C         -80.6225   24.1824  -76.1768 C.2       2 UNK         0.5004 
     61 O         -79.7532   25.0468  -76.0458 O.2       2 UNK        -0.5226 
     62 CA        -81.7935   24.0940  -75.1828 C.3       2 UNK         0.0269 
     63 CB        -81.7789   22.7464  -74.4355 C.3       2 UNK        -0.1926 
     64 N         -81.7604   25.1579  -74.1781 N.am      2 UNK        -0.4687 
     65 C         -82.2215   26.4069  -74.3332 C.2       1 UNK         0.5165 
     66 O         -82.6951   26.8268  -75.3903 O.2       1 UNK        -0.5079 
     67 H67       -80.7135   25.5975  -69.7760 H         1 UNK         0.0900 
     68 H68       -82.2622   25.5255  -68.9384 H         1 UNK         0.0900 
     69 H69       -81.7576   24.1871  -69.9740 H         1 UNK         0.0900 
     70 H70       -80.6968   26.6816  -71.7436 H         1 UNK         0.2959 
     71 H71       -83.2432   27.5930  -72.9179 H         1 UNK         0.1079 
     72 H72       -81.8130   29.1476  -74.2496 H         1 UNK         0.0837 
     73 H73       -80.3792   28.4723  -73.5177 H         1 UNK         0.0837 
     74 H74       -80.1164   31.3056  -73.0413 H         1 UNK         0.0685 
     75 H75       -80.3024   31.7061  -71.3512 H         1 UNK         0.0685 
     76 H76       -79.6322   28.3186  -71.0126 H         1 UNK         0.1434 
     77 H77       -75.3614   28.5436  -71.1482 H         1 UNK         0.1329 
     78 H78       -77.7107   31.9254  -72.3215 H         1 UNK         0.1335 
     79 H79       -74.4213   30.9197  -71.1423 H         1 UNK         0.0680 
     80 H80       -75.3545   32.2023  -71.8732 H         1 UNK         0.0680 
     81 H81       -73.0543   32.5275  -74.5432 H         1 UNK         0.1032 
     82 H82       -73.2766   32.8371  -72.8561 H         1 UNK         0.1032 
     83 H83       -70.9571   32.3750  -73.3095 H         1 UNK         0.0461 
     84 H84       -70.9256   29.0700  -72.4550 H         1 UNK         0.3453 
     85 H85       -70.9854   29.3144  -70.7263 H         1 UNK         0.3453 
     86 H86       -71.8488   30.1480  -74.9205 H         1 UNK         0.2984 
     87 H87       -69.9875   29.8477  -76.7100 H         1 UNK         0.0554 
     88 H88       -67.5657   30.1534  -76.2699 H         1 UNK         0.0847 
     89 H89       -67.8787   28.5516  -76.9127 H         1 UNK         0.0847 
     90 H90       -67.5558   28.7647  -75.1919 H         1 UNK         0.0847 
     91 H91       -69.5950   27.3849  -75.1698 H         1 UNK         0.3141 
     92 H92       -71.0511   25.7047  -75.5207 H         1 UNK         0.0743 
     93 H93       -73.2665   27.0875  -73.9146 H         1 UNK         0.0784 
     94 H94       -72.9236   25.3594  -73.8333 H         1 UNK         0.0784 
     95 H95       -71.7145   26.5268  -73.3218 H         1 UNK         0.0784 
     96 H96       -73.8823   26.0969  -76.2139 H         1 UNK         0.3213 
     97 H97       -73.5338   25.2295  -79.5610 H         1 UNK         0.0855 
     98 H98       -74.0876   22.9643  -77.5679 H         1 UNK         0.0814 
     99 H99       -72.8832   22.9200  -78.8496 H         1 UNK         0.0814 
    100 H100      -74.5891   22.9999  -79.2577 H         1 UNK         0.0814 
    101 H101      -75.7298   24.7708  -77.7559 H         1 UNK         0.3105 
    102 H102      -76.8447   28.1323  -77.5948 H         1 UNK         0.0547 
    103 H103      -77.8431   27.3938  -79.7178 H         1 UNK         0.0837 
    104 H104      -77.9987   25.7478  -79.1311 H         1 UNK         0.0837 
    105 H105      -78.9637   27.0383  -78.4114 H         1 UNK         0.0837 
    106 H106      -78.0185   25.8200  -76.5051 H         1 UNK         0.3020 
    107 H107      -76.0313   25.6307  -73.5150 H         1 UNK         0.1245 
    108 H108      -78.9574   26.3376  -74.0539 H         1 UNK         0.0781 
    109 H109      -77.8295   27.4674  -73.4122 H         1 UNK         0.0781 
    110 H110      -76.3756   26.4533  -70.7128 H         1 UNK         0.0836 
    111 H111      -77.7623   26.6492  -69.6696 H         1 UNK         0.0836 
    112 H112      -78.2086   24.1424  -74.7904 H         1 UNK         0.3022 
    113 H113      -76.0891   21.6013  -76.0825 H         1 UNK         0.0747 
    114 H114      -77.4811   20.0769  -74.6982 H         1 UNK         0.0793 
    115 H115      -76.2912   20.8877  -73.6944 H         1 UNK         0.0793 
    116 H116      -77.9666   21.4190  -73.6602 H         1 UNK         0.0793 
    117 H117      -78.9326   21.8273  -75.9187 H         1 UNK         0.3047 
    118 H118      -79.4426   23.9794  -78.6885 H         1 UNK         0.0822 
    119 H119      -79.9158   20.9557  -78.5029 H         1 UNK         0.0807 
    120 H120      -79.0334   21.7699  -79.7873 H         1 UNK         0.0807 
    121 H121      -80.7488   22.0767  -79.5811 H         1 UNK         0.0807 
    122 H122      -81.3287   22.5599  -77.1715 H         1 UNK         0.2946 
    123 H123      -82.7220   24.1761  -75.7527 H         1 UNK         0.1144 
    124 H124      -82.5941   22.6878  -73.7137 H         1 UNK         0.0793 
    125 H125      -80.8445   22.5947  -73.8931 H         1 UNK         0.0793 
    126 H126      -81.9034   21.9040  -75.1165 H         1 UNK         0.0793 
    127 H127      -81.3682   24.9173  -73.2802 H         1 UNK         0.2896 
@<TRIPOS>BOND
     1    1    2 1    
     2    1   67 1    
     3    1   68 1    
     4    1   69 1    
     5    2    3 2    
     6    2    4 am   BACKBONE|DICT|INTERRES
     7    4    5 1    
     8    4   70 1    
     9    5    6 1    
    10    5   65 1    
    11    5   71 1    
    12    6    7 1    
    13    6   72 1    
    14    6   73 1    
    15    7    8 1    
    16    8    9 1    
    17    8   74 1    
    18    8   75 1    
    19    9   10 ar   
    20    9   14 ar   
    21   10   11 ar   
    22   10   76 1    
    23   11   12 ar   
    24   11   48 1    
    25   12   13 ar   
    26   12   77 1    
    27   13   14 ar   
    28   13   15 1    
    29   14   78 1    
    30   15   16 1    
    31   15   79 1    
    32   15   80 1    
    33   16   17 1    
    34   17   18 1    
    35   17   81 1    
    36   17   82 1    
    37   18   19 1    
    38   18   22 1    
    39   18   83 1    
    40   19   20 am   BACKBONE|DICT|INTERRES
    41   19   21 2    
    42   20   84 1    
    43   20   85 1    
    44   22   23 am   BACKBONE|DICT|INTERRES
    45   22   86 1    
    46   23   24 2    
    47   23   25 1    
    48   25   26 1    
    49   25   27 1    
    50   25   87 1    
    51   26   88 1    
    52   26   89 1    
    53   26   90 1    
    54   27   28 am   BACKBONE|DICT|INTERRES
    55   27   91 1    
    56   28   29 2    
    57   28   30 1    
    58   30   31 1    
    59   30   32 1    
    60   30   92 1    
    61   31   93 1    
    62   31   94 1    
    63   31   95 1    
    64   32   33 am   BACKBONE|DICT|INTERRES
    65   32   96 1    
    66   33   34 2    
    67   33   35 1    
    68   35   36 1    
    69   35   37 1    
    70   35   97 1    
    71   36   98 1    
    72   36   99 1    
    73   36  100 1    
    74   37   38 am   BACKBONE|DICT|INTERRES
    75   37  101 1    
    76   38   39 2    
    77   38   40 1    
    78   40   41 1    
    79   40   42 1    
    80   40  102 1    
    81   41  103 1    
    82   41  104 1    
    83   41  105 1    
    84   42   43 am   BACKBONE|DICT|INTERRES
    85   42  106 1    
    86   43   44 2    
    87   43   45 1    
    88   45   46 1    
    89   45   49 1    
    90   45  107 1    
    91   46   47 1    
    92   46  108 1    
    93   46  109 1    
    94   47   48 1    
    95   48  110 1    
    96   48  111 1    
    97   49   50 am   BACKBONE|DICT|INTERRES
    98   49  112 1    
    99   50   51 2    
   100   50   52 1    
   101   52   53 1    
   102   52   54 1    
   103   52  113 1    
   104   53  114 1    
   105   53  115 1    
   106   53  116 1    
   107   54   55 am   BACKBONE|DICT|INTERRES
   108   54  117 1    
   109   55   56 2    
   110   55   57 1    
   111   57   58 1    
   112   57   59 1    
   113   57  118 1    
   114   58  119 1    
   115   58  120 1    
   116   58  121 1    
   117   59   60 am   BACKBONE|DICT|INTERRES
   118   59  122 1    
   119   60   61 2    
   120   60   62 1    
   121   62   63 1    
   122   62   64 1    
   123   62  123 1    
   124   63  124 1    
   125   63  125 1    
   126   63  126 1    
   127   64   65 am   BACKBONE|DICT|INTERRES
   128   64  127 1    
   129   65   66 2    
@<TRIPOS>SUBSTRUCTURE
     1 UNK         1 GROUP             0       ****    0 ROOT    
