@<TRIPOS>MOLECULE
3R135
127   129    1
SMALL
USER_CHARGES


@<TRIPOS>ATOM
      1 CA        -82.3338   31.8096  -75.2151 C.3       0 UNK        -0.1998 
      2 C         -81.4685   30.5758  -75.0073 C.2       0 UNK         0.4909 
      3 O         -80.9146   30.0472  -75.9716 O.2       0 UNK        -0.5240 
      4 N         -81.3387   30.1218  -73.7548 N.am      1 UNK        -0.4739 
      5 CA        -80.5851   28.9249  -73.3649 C.3       1 UNK         0.0864 
      6 C6        -80.3879   28.8444  -71.8287 C.3       11 UNK        -0.0881 
      7 S7        -79.5852   30.3310  -71.1298 S.3       11 UNK        -0.2682 
      8 C8        -78.7948   29.6737  -69.6251 C.3       11 UNK         0.0289 
      9 C9        -77.5318   28.8981  -69.9619 C.ar      11 UNK        -0.0687 
     10 C10       -77.5501   27.5031  -70.0028 C.ar      11 UNK        -0.0823 
     11 C11       -76.4126   26.7930  -70.3912 C.ar      11 UNK        -0.0830 
     12 C12       -75.2440   27.4901  -70.7159 C.ar      11 UNK        -0.1021 
     13 C13       -75.2008   28.8874  -70.6628 C.ar      11 UNK        -0.0753 
     14 C14       -76.3515   29.5822  -70.2648 C.ar      11 UNK        -0.0933 
     15 C15       -73.8984   29.5810  -71.0781 C.3       11 UNK         0.0166 
     16 S16       -73.8928   31.4145  -71.0705 S.3       11 UNK        -0.2615 
     17 C17       -75.0645   31.9569  -72.3753 C.3       11 UNK        -0.0865 
     18 CA        -75.3836   30.9507  -73.5132 C.3       10 UNK         0.0862 
     19 C         -76.5517   31.4754  -74.3959 C.2       10 UNK         0.5551 
     20 N         -77.7861   31.3394  -73.9323 N.am      10 UNK        -0.7319 
     21 O         -76.3506   32.0420  -75.4689 O.2       10 UNK        -0.5018 
     22 N         -74.1826   30.6393  -74.3020 N.am      10 UNK        -0.4509 
     23 C         -74.0875   29.6120  -75.1540 C.2       10 UNK         0.4899 
     24 O         -74.9608   28.7545  -75.2794 O.2       10 UNK        -0.4839 
     25 CA        -72.8351   29.5350  -76.0497 C.3       9 UNK         0.0222 
     26 CB        -71.8631   30.7306  -75.9093 C.3       9 UNK        -0.1966 
     27 N         -72.1348   28.2559  -75.8971 N.am      9 UNK        -0.4218 
     28 C         -71.5166   27.7921  -74.7984 C.2       9 UNK         0.5020 
     29 O         -71.4189   28.4302  -73.7487 O.2       9 UNK        -0.5274 
     30 CA        -70.8901   26.3857  -74.8859 C.3       8 UNK         0.0270 
     31 CB        -70.8897   25.6666  -73.5233 C.3       8 UNK        -0.1976 
     32 N         -71.6085   25.5569  -75.8526 N.am      8 UNK        -0.4313 
     33 C         -71.1061   25.0262  -76.9746 C.2       8 UNK         0.5041 
     34 O         -69.9242   25.1228  -77.3072 O.2       8 UNK        -0.5577 
     35 CA        -72.0843   24.2706  -77.8999 C.3       7 UNK         0.0284 
     36 CB        -71.9641   22.7537  -77.6808 C.3       7 UNK        -0.1958 
     37 N         -73.4886   24.6641  -77.7399 N.am      7 UNK        -0.4454 
     38 C         -73.9795   25.8904  -77.9684 C.2       7 UNK         0.5089 
     39 O         -73.3081   26.8199  -78.4181 O.2       7 UNK        -0.5125 
     40 CA        -75.4462   26.1444  -77.5730 C.3       6 UNK         0.0408 
     41 CB        -76.3694   25.9213  -78.7803 C.3       6 UNK        -0.1791 
     42 N         -75.9489   25.3671  -76.4300 N.am      6 UNK        -0.4762 
     43 C         -75.3633   25.2167  -75.2296 C.2       6 UNK         0.5007 
     44 O         -74.2357   25.6212  -74.9537 O.2       6 UNK        -0.5032 
     45 CA        -76.1568   24.4719  -74.1441 C.3       5 UNK         0.0783 
     46 C46       -76.9419   25.4842  -73.2813 C.3       11 UNK        -0.0857 
     47 S47       -77.6397   24.7189  -71.7810 S.3       11 UNK        -0.2512 
     48 C48       -76.4625   25.2747  -70.5019 C.3       11 UNK         0.0225 
     49 N         -77.0226   23.4392  -74.7171 N.am      5 UNK        -0.4615 
     50 C         -76.6006   22.2399  -75.1382 C.2       4 UNK         0.5053 
     51 O         -75.4312   21.8626  -75.0658 O.2       4 UNK        -0.5105 
     52 CA        -77.6608   21.3027  -75.7441 C.3       4 UNK         0.0263 
     53 CB        -78.2779   20.4158  -74.6507 C.3       4 UNK        -0.1981 
     54 N         -78.7273   22.0303  -76.4368 N.am      4 UNK        -0.4224 
     55 C         -78.5758   22.6557  -77.6132 C.2       3 UNK         0.4895 
     56 O         -77.5483   22.6039  -78.2883 O.2       3 UNK        -0.5091 
     57 CA        -79.7587   23.5105  -78.1053 C.3       3 UNK         0.0250 
     58 CB        -80.6834   22.6801  -79.0098 C.3       3 UNK        -0.1996 
     59 N         -80.5460   24.1139  -77.0214 N.am      3 UNK        -0.4254 
     60 C         -80.0687   25.0059  -76.1426 C.2       2 UNK         0.5004 
     61 O         -78.9024   25.4071  -76.1407 O.2       2 UNK        -0.5226 
     62 CA        -81.0310   25.4780  -75.0483 C.3       2 UNK         0.0269 
     63 CB        -81.1516   24.4186  -73.9361 C.3       2 UNK        -0.1926 
     64 N         -80.5352   26.7325  -74.4847 N.am      2 UNK        -0.4687 
     65 C         -81.2936   27.6544  -73.8819 C.2       1 UNK         0.5165 
     66 O         -82.5086   27.5267  -73.7064 O.2       1 UNK        -0.5079 
     67 H67       -83.1673   31.5756  -75.8768 H         1 UNK         0.0900 
     68 H68       -81.7480   32.6063  -75.6727 H         1 UNK         0.0900 
     69 H69       -82.7408   32.1848  -74.2762 H         1 UNK         0.0900 
     70 H70       -81.8186   30.5925  -73.0011 H         1 UNK         0.2959 
     71 H71       -79.6006   28.9854  -73.8344 H         1 UNK         0.1079 
     72 H72       -81.3458   28.7104  -71.3218 H         1 UNK         0.0837 
     73 H73       -79.7896   27.9662  -71.5837 H         1 UNK         0.0837 
     74 H74       -78.5448   30.5056  -68.9651 H         1 UNK         0.0685 
     75 H75       -79.5047   29.0510  -69.0782 H         1 UNK         0.0685 
     76 H76       -78.4598   26.9668  -69.7691 H         1 UNK         0.1434 
     77 H77       -74.3660   26.9438  -71.0339 H         1 UNK         0.1329 
     78 H78       -76.3562   30.6599  -70.2118 H         1 UNK         0.1335 
     79 H79       -73.5950   29.2230  -72.0620 H         1 UNK         0.0680 
     80 H80       -73.1149   29.2542  -70.3932 H         1 UNK         0.0680 
     81 H81       -74.6754   32.8835  -72.8016 H         1 UNK         0.1032 
     82 H82       -75.9851   32.2474  -71.8660 H         1 UNK         0.1032 
     83 H83       -75.7370   30.0186  -73.0726 H         1 UNK         0.0461 
     84 H84       -77.9717   30.9100  -73.0383 H         1 UNK         0.3453 
     85 H85       -78.5507   31.6876  -74.4877 H         1 UNK         0.3453 
     86 H86       -73.4296   31.3085  -74.2578 H         1 UNK         0.2984 
     87 H87       -73.2072   29.5444  -77.0753 H         1 UNK         0.0554 
     88 H88       -71.0261   30.6352  -76.6011 H         1 UNK         0.0847 
     89 H89       -71.4484   30.8157  -74.9043 H         1 UNK         0.0847 
     90 H90       -72.3606   31.6723  -76.1448 H         1 UNK         0.0847 
     91 H91       -72.2082   27.6348  -76.6945 H         1 UNK         0.3141 
     92 H92       -69.8539   26.5248  -75.2000 H         1 UNK         0.0743 
     93 H93       -71.9011   25.5573  -73.1291 H         1 UNK         0.0784 
     94 H94       -70.4504   24.6721  -73.6007 H         1 UNK         0.0784 
     95 H95       -70.3074   26.2196  -72.7852 H         1 UNK         0.0784 
     96 H96       -72.6063   25.4553  -75.6600 H         1 UNK         0.3213 
     97 H97       -71.7940   24.4946  -78.9285 H         1 UNK         0.0855 
     98 H98       -72.2722   22.4660  -76.6745 H         1 UNK         0.0814 
     99 H99       -70.9340   22.4201  -77.8145 H         1 UNK         0.0814 
    100 H100      -72.5768   22.1992  -78.3918 H         1 UNK         0.0814 
    101 H101      -74.1167   23.9732  -77.3540 H         1 UNK         0.3105 
    102 H102      -75.5214   27.1950  -77.2914 H         1 UNK         0.0547 
    103 H103      -76.0608   26.5357  -79.6272 H         1 UNK         0.0837 
    104 H104      -76.3562   24.8822  -79.1102 H         1 UNK         0.0837 
    105 H105      -77.4006   26.1876  -78.5471 H         1 UNK         0.0837 
    106 H106      -76.9095   25.0500  -76.5077 H         1 UNK         0.3020 
    107 H107      -75.4196   23.9828  -73.5025 H         1 UNK         0.1245 
    108 H108      -77.7610   25.9245  -73.8491 H         1 UNK         0.0781 
    109 H109      -76.3042   26.3235  -73.0020 H         1 UNK         0.0781 
    110 H110      -75.4757   24.8658  -70.7247 H         1 UNK         0.0836 
    111 H111      -76.7590   24.8548  -69.5398 H         1 UNK         0.0836 
    112 H112      -77.9900   23.6948  -74.8475 H         1 UNK         0.3022 
    113 H113      -77.1584   20.6560  -76.4670 H         1 UNK         0.0747 
    114 H114      -78.9844   19.7001  -75.0717 H         1 UNK         0.0793 
    115 H115      -77.5070   19.8418  -74.1343 H         1 UNK         0.0793 
    116 H116      -78.8033   21.0055  -73.8982 H         1 UNK         0.0793 
    117 H117      -79.6163   22.1035  -75.9645 H         1 UNK         0.3047 
    118 H118      -79.3411   24.3250  -78.7013 H         1 UNK         0.0822 
    119 H119      -81.4713   23.2955  -79.4446 H         1 UNK         0.0807 
    120 H120      -81.1566   21.8625  -78.4646 H         1 UNK         0.0807 
    121 H121      -80.1260   22.2398  -79.8380 H         1 UNK         0.0807 
    122 H122      -81.5122   23.8267  -76.9519 H         1 UNK         0.2946 
    123 H123      -82.0089   25.6492  -75.5047 H         1 UNK         0.1144 
    124 H124      -80.1899   24.2216  -73.4612 H         1 UNK         0.0793 
    125 H125      -81.5244   23.4717  -74.3281 H         1 UNK         0.0793 
    126 H126      -81.8458   24.7367  -73.1581 H         1 UNK         0.0793 
    127 H127      -79.5556   26.9101  -74.6685 H         1 UNK         0.2896 
@<TRIPOS>BOND
     1    1    2 1    
     2    1   67 1    
     3    1   68 1    
     4    1   69 1    
     5    2    3 2    
     6    2    4 am   BACKBONE|DICT|INTERRES
     7    4    5 1    
     8    4   70 1    
     9    5    6 1    
    10    5   65 1    
    11    5   71 1    
    12    6    7 1    
    13    6   72 1    
    14    6   73 1    
    15    7    8 1    
    16    8    9 1    
    17    8   74 1    
    18    8   75 1    
    19    9   10 ar   
    20    9   14 ar   
    21   10   11 ar   
    22   10   76 1    
    23   11   12 ar   
    24   11   48 1    
    25   12   13 ar   
    26   12   77 1    
    27   13   14 ar   
    28   13   15 1    
    29   14   78 1    
    30   15   16 1    
    31   15   79 1    
    32   15   80 1    
    33   16   17 1    
    34   17   18 1    
    35   17   81 1    
    36   17   82 1    
    37   18   19 1    
    38   18   22 1    
    39   18   83 1    
    40   19   20 am   BACKBONE|DICT|INTERRES
    41   19   21 2    
    42   20   84 1    
    43   20   85 1    
    44   22   23 am   BACKBONE|DICT|INTERRES
    45   22   86 1    
    46   23   24 2    
    47   23   25 1    
    48   25   26 1    
    49   25   27 1    
    50   25   87 1    
    51   26   88 1    
    52   26   89 1    
    53   26   90 1    
    54   27   28 am   BACKBONE|DICT|INTERRES
    55   27   91 1    
    56   28   29 2    
    57   28   30 1    
    58   30   31 1    
    59   30   32 1    
    60   30   92 1    
    61   31   93 1    
    62   31   94 1    
    63   31   95 1    
    64   32   33 am   BACKBONE|DICT|INTERRES
    65   32   96 1    
    66   33   34 2    
    67   33   35 1    
    68   35   36 1    
    69   35   37 1    
    70   35   97 1    
    71   36   98 1    
    72   36   99 1    
    73   36  100 1    
    74   37   38 am   BACKBONE|DICT|INTERRES
    75   37  101 1    
    76   38   39 2    
    77   38   40 1    
    78   40   41 1    
    79   40   42 1    
    80   40  102 1    
    81   41  103 1    
    82   41  104 1    
    83   41  105 1    
    84   42   43 am   BACKBONE|DICT|INTERRES
    85   42  106 1    
    86   43   44 2    
    87   43   45 1    
    88   45   46 1    
    89   45   49 1    
    90   45  107 1    
    91   46   47 1    
    92   46  108 1    
    93   46  109 1    
    94   47   48 1    
    95   48  110 1    
    96   48  111 1    
    97   49   50 am   BACKBONE|DICT|INTERRES
    98   49  112 1    
    99   50   51 2    
   100   50   52 1    
   101   52   53 1    
   102   52   54 1    
   103   52  113 1    
   104   53  114 1    
   105   53  115 1    
   106   53  116 1    
   107   54   55 am   BACKBONE|DICT|INTERRES
   108   54  117 1    
   109   55   56 2    
   110   55   57 1    
   111   57   58 1    
   112   57   59 1    
   113   57  118 1    
   114   58  119 1    
   115   58  120 1    
   116   58  121 1    
   117   59   60 am   BACKBONE|DICT|INTERRES
   118   59  122 1    
   119   60   61 2    
   120   60   62 1    
   121   62   63 1    
   122   62   64 1    
   123   62  123 1    
   124   63  124 1    
   125   63  125 1    
   126   63  126 1    
   127   64   65 am   BACKBONE|DICT|INTERRES
   128   64  127 1    
   129   65   66 2    
@<TRIPOS>SUBSTRUCTURE
     1 UNK         1 GROUP             0       ****    0 ROOT    
