@<TRIPOS>MOLECULE
3R135
127   129    1
SMALL
USER_CHARGES


@<TRIPOS>ATOM
      1 CA        -83.4496   26.1222  -70.3873 C.3       0 UNK        -0.1998 
      2 C         -83.6493   26.5101  -71.8447 C.2       0 UNK         0.4909 
      3 O         -84.7586   26.3865  -72.3647 O.2       0 UNK        -0.5240 
      4 N         -82.5834   26.9825  -72.5041 N.am      1 UNK        -0.4739 
      5 CA        -82.5796   27.3971  -73.9144 C.3       1 UNK         0.0864 
      6 C6        -81.2843   28.1608  -74.2818 C.3       11 UNK        -0.0881 
      7 S7        -81.1021   29.7136  -73.3467 S.3       11 UNK        -0.2682 
      8 C8        -79.4867   30.2995  -73.9676 C.3       11 UNK         0.0289 
      9 C9        -78.2542   29.8477  -73.1781 C.ar      11 UNK        -0.0687 
     10 C10       -78.2807   28.8182  -72.2246 C.ar      11 UNK        -0.0823 
     11 C11       -77.1304   28.4838  -71.5006 C.ar      11 UNK        -0.0830 
     12 C12       -75.9397   29.1701  -71.7514 C.ar      11 UNK        -0.1021 
     13 C13       -75.8871   30.1797  -72.7143 C.ar      11 UNK        -0.0753 
     14 C14       -77.0486   30.5171  -73.4144 C.ar      11 UNK        -0.0933 
     15 C15       -74.5893   30.9390  -72.9514 C.3       11 UNK         0.0166 
     16 S16       -74.0297   30.8549  -74.6824 S.3       11 UNK        -0.2615 
     17 C17       -72.4152   31.7030  -74.5345 C.3       11 UNK        -0.0865 
     18 CA        -71.2128   30.8477  -75.0312 C.3       10 UNK         0.0862 
     19 C         -69.8553   31.6071  -74.9325 C.2       10 UNK         0.5551 
     20 N         -68.7405   30.9357  -74.6702 N.am      10 UNK        -0.7319 
     21 O         -69.8037   32.8196  -75.1255 O.2       10 UNK        -0.5018 
     22 N         -71.1976   29.4786  -74.4866 N.am      10 UNK        -0.4509 
     23 C         -71.1097   29.1226  -73.1970 C.2       10 UNK         0.4899 
     24 O         -70.9572   29.9275  -72.2776 O.2       10 UNK        -0.4839 
     25 CA        -71.2286   27.6203  -72.8671 C.3       9 UNK         0.0222 
     26 CB        -72.1874   27.3832  -71.6867 C.3       9 UNK        -0.1966 
     27 N         -71.7028   26.8440  -74.0162 N.am      9 UNK        -0.4218 
     28 C         -70.9252   26.1483  -74.8559 C.2       9 UNK         0.5020 
     29 O         -69.7115   26.0003  -74.7087 O.2       9 UNK        -0.5274 
     30 CA        -71.6126   25.5516  -76.0975 C.3       8 UNK         0.0270 
     31 CB        -72.3252   24.2353  -75.7460 C.3       8 UNK        -0.1976 
     32 N         -72.5658   26.4673  -76.7331 N.am      8 UNK        -0.4313 
     33 C         -72.2851   27.6786  -77.2314 C.2       8 UNK         0.5041 
     34 O         -71.1556   28.1669  -77.2229 O.2       8 UNK        -0.5577 
     35 CA        -73.4492   28.5181  -77.7937 C.3       7 UNK         0.0284 
     36 CB        -73.6782   28.2265  -79.2895 C.3       7 UNK        -0.1958 
     37 N         -74.6940   28.4231  -77.0163 N.am      7 UNK        -0.4454 
     38 C         -75.4986   27.3648  -76.8587 C.2       7 UNK         0.5089 
     39 O         -75.3322   26.2795  -77.4195 O.2       7 UNK        -0.5125 
     40 CA        -76.6426   27.5242  -75.8460 C.3       6 UNK         0.0408 
     41 CB        -77.9993   27.5351  -76.5642 C.3       6 UNK        -0.1791 
     42 N         -76.6286   26.4509  -74.8503 N.am      6 UNK        -0.4762 
     43 C         -75.5986   26.1458  -74.0478 C.2       6 UNK         0.5007 
     44 O         -74.5340   26.7657  -74.0329 O.2       6 UNK        -0.5032 
     45 CA        -75.7513   24.8991  -73.1545 C.3       5 UNK         0.0783 
     46 C46       -76.7242   25.1277  -71.9658 C.3       11 UNK        -0.0857 
     47 S47       -75.9710   26.0911  -70.6160 S.3       11 UNK        -0.2512 
     48 C48       -77.1868   27.4328  -70.3971 C.3       11 UNK         0.0225 
     49 N         -76.0514   23.6929  -73.9412 N.am      5 UNK        -0.4615 
     50 C         -77.2243   23.3704  -74.4996 C.2       4 UNK         0.5053 
     51 O         -78.2456   24.0504  -74.3807 O.2       4 UNK        -0.5105 
     52 CA        -77.2661   22.0548  -75.2939 C.3       4 UNK         0.0263 
     53 CB        -77.4055   20.8568  -74.3398 C.3       4 UNK        -0.1981 
     54 N         -78.4053   22.0594  -76.2100 N.am      4 UNK        -0.4224 
     55 C         -78.4007   22.5759  -77.4465 C.2       3 UNK         0.4895 
     56 O         -77.3837   22.9446  -78.0342 O.2       3 UNK        -0.5091 
     57 CA        -79.7691   22.7109  -78.1454 C.3       3 UNK         0.0250 
     58 CB        -80.0364   21.4963  -79.0494 C.3       3 UNK        -0.1996 
     59 N         -80.8803   22.8673  -77.1981 N.am      3 UNK        -0.4254 
     60 C         -81.0726   23.9567  -76.4396 C.2       2 UNK         0.5004 
     61 O         -80.4154   24.9925  -76.5669 O.2       2 UNK        -0.5226 
     62 CA        -82.1562   23.8436  -75.3464 C.3       2 UNK         0.0269 
     63 CB        -81.8930   22.6431  -74.4160 C.3       2 UNK        -0.1926 
     64 N         -82.2195   25.0480  -74.5173 N.am      2 UNK        -0.4687 
     65 C         -82.7779   26.2101  -74.8803 C.2       1 UNK         0.5165 
     66 O         -83.4212   26.3681  -75.9197 O.2       1 UNK        -0.5079 
     67 H67       -82.4251   26.2912  -70.0562 H         1 UNK         0.0900 
     68 H68       -83.6822   25.0672  -70.2450 H         1 UNK         0.0900 
     69 H69       -84.1123   26.7065  -69.7496 H         1 UNK         0.0900 
     70 H70       -81.7073   27.0922  -72.0148 H         1 UNK         0.2959 
     71 H71       -83.4277   28.0694  -74.0647 H         1 UNK         0.1079 
     72 H72       -80.4077   27.5341  -74.1064 H         1 UNK         0.0837 
     73 H73       -81.2775   28.4110  -75.3451 H         1 UNK         0.0837 
     74 H74       -79.3683   30.0101  -75.0125 H         1 UNK         0.0685 
     75 H75       -79.5193   31.3901  -73.9588 H         1 UNK         0.0685 
     76 H76       -79.1994   28.2905  -72.0172 H         1 UNK         0.1434 
     77 H77       -75.0558   28.9236  -71.1804 H         1 UNK         0.1329 
     78 H78       -77.0119   31.3141  -74.1448 H         1 UNK         0.1335 
     79 H79       -74.7324   31.9834  -72.6707 H         1 UNK         0.0680 
     80 H80       -73.7990   30.5484  -72.3082 H         1 UNK         0.0680 
     81 H81       -72.2498   32.0122  -73.5011 H         1 UNK         0.1032 
     82 H82       -72.4795   32.6282  -75.1099 H         1 UNK         0.1032 
     83 H83       -71.3583   30.7103  -76.1028 H         1 UNK         0.0461 
     84 H84       -67.8639   31.4301  -74.6174 H         1 UNK         0.3453 
     85 H85       -68.7714   29.9396  -74.5236 H         1 UNK         0.3453 
     86 H86       -71.2534   28.7485  -75.1858 H         1 UNK         0.2984 
     87 H87       -70.2364   27.2780  -72.5675 H         1 UNK         0.0554 
     88 H88       -72.2682   26.3232  -71.4464 H         1 UNK         0.0847 
     89 H89       -73.1891   27.7509  -71.9074 H         1 UNK         0.0847 
     90 H90       -71.8425   27.8931  -70.7864 H         1 UNK         0.0847 
     91 H91       -72.7056   26.8916  -74.1973 H         1 UNK         0.3141 
     92 H92       -70.8341   25.3336  -76.8315 H         1 UNK         0.0743 
     93 H93       -73.1383   24.3935  -75.0374 H         1 UNK         0.0784 
     94 H94       -72.7426   23.7606  -76.6343 H         1 UNK         0.0784 
     95 H95       -71.6315   23.5245  -75.2947 H         1 UNK         0.0784 
     96 H96       -73.5306   26.1557  -76.8133 H         1 UNK         0.3213 
     97 H97       -73.1406   29.5618  -77.7121 H         1 UNK         0.0855 
     98 H98       -72.7716   28.4218  -79.8638 H         1 UNK         0.0814 
     99 H99       -74.4647   28.8589  -79.7011 H         1 UNK         0.0814 
    100 H100      -73.9539   27.1872  -79.4694 H         1 UNK         0.0814 
    101 H101      -74.8875   29.2352  -76.4430 H         1 UNK         0.3105 
    102 H102      -76.5212   28.4682  -75.3128 H         1 UNK         0.0547 
    103 H103      -78.0551   28.3516  -77.2850 H         1 UNK         0.0837 
    104 H104      -78.1730   26.6049  -77.1076 H         1 UNK         0.0837 
    105 H105      -78.8196   27.6651  -75.8611 H         1 UNK         0.0837 
    106 H106      -77.4325   25.8309  -74.8285 H         1 UNK         0.3020 
    107 H107      -74.7625   24.7089  -72.7324 H         1 UNK         0.1245 
    108 H108      -77.0168   24.1679  -71.5374 H         1 UNK         0.0781 
    109 H109      -77.6523   25.5981  -72.2958 H         1 UNK         0.0781 
    110 H110      -76.9885   27.9252  -69.4441 H         1 UNK         0.0836 
    111 H111      -78.1856   27.0019  -70.3116 H         1 UNK         0.0836 
    112 H112      -75.2674   23.0737  -74.0920 H         1 UNK         0.3022 
    113 H113      -76.3387   21.9528  -75.8618 H         1 UNK         0.0747 
    114 H114      -77.4465   19.9160  -74.8891 H         1 UNK         0.0793 
    115 H115      -76.5559   20.7947  -73.6585 H         1 UNK         0.0793 
    116 H116      -78.3072   20.9282  -73.7296 H         1 UNK         0.0793 
    117 H117      -79.2995   21.8338  -75.8024 H         1 UNK         0.3047 
    118 H118      -79.7289   23.6035  -78.7738 H         1 UNK         0.0822 
    119 H119      -80.9668   21.6122  -79.6056 H         1 UNK         0.0807 
    120 H120      -80.0989   20.5702  -78.4765 H         1 UNK         0.0807 
    121 H121      -79.2369   21.3728  -79.7814 H         1 UNK         0.0807 
    122 H122      -81.4794   22.0648  -77.0660 H         1 UNK         0.2946 
    123 H123      -83.1200   23.7066  -75.8423 H         1 UNK         0.1144 
    124 H124      -81.9493   21.6955  -74.9523 H         1 UNK         0.0793 
    125 H125      -82.6324   22.5944  -73.6161 H         1 UNK         0.0793 
    126 H126      -80.9063   22.7022  -73.9533 H         1 UNK         0.0793 
    127 H127      -81.6901   25.0291  -73.6584 H         1 UNK         0.2896 
@<TRIPOS>BOND
     1    1    2 1    
     2    1   67 1    
     3    1   68 1    
     4    1   69 1    
     5    2    3 2    
     6    2    4 am   BACKBONE|DICT|INTERRES
     7    4    5 1    
     8    4   70 1    
     9    5    6 1    
    10    5   65 1    
    11    5   71 1    
    12    6    7 1    
    13    6   72 1    
    14    6   73 1    
    15    7    8 1    
    16    8    9 1    
    17    8   74 1    
    18    8   75 1    
    19    9   10 ar   
    20    9   14 ar   
    21   10   11 ar   
    22   10   76 1    
    23   11   12 ar   
    24   11   48 1    
    25   12   13 ar   
    26   12   77 1    
    27   13   14 ar   
    28   13   15 1    
    29   14   78 1    
    30   15   16 1    
    31   15   79 1    
    32   15   80 1    
    33   16   17 1    
    34   17   18 1    
    35   17   81 1    
    36   17   82 1    
    37   18   19 1    
    38   18   22 1    
    39   18   83 1    
    40   19   20 am   BACKBONE|DICT|INTERRES
    41   19   21 2    
    42   20   84 1    
    43   20   85 1    
    44   22   23 am   BACKBONE|DICT|INTERRES
    45   22   86 1    
    46   23   24 2    
    47   23   25 1    
    48   25   26 1    
    49   25   27 1    
    50   25   87 1    
    51   26   88 1    
    52   26   89 1    
    53   26   90 1    
    54   27   28 am   BACKBONE|DICT|INTERRES
    55   27   91 1    
    56   28   29 2    
    57   28   30 1    
    58   30   31 1    
    59   30   32 1    
    60   30   92 1    
    61   31   93 1    
    62   31   94 1    
    63   31   95 1    
    64   32   33 am   BACKBONE|DICT|INTERRES
    65   32   96 1    
    66   33   34 2    
    67   33   35 1    
    68   35   36 1    
    69   35   37 1    
    70   35   97 1    
    71   36   98 1    
    72   36   99 1    
    73   36  100 1    
    74   37   38 am   BACKBONE|DICT|INTERRES
    75   37  101 1    
    76   38   39 2    
    77   38   40 1    
    78   40   41 1    
    79   40   42 1    
    80   40  102 1    
    81   41  103 1    
    82   41  104 1    
    83   41  105 1    
    84   42   43 am   BACKBONE|DICT|INTERRES
    85   42  106 1    
    86   43   44 2    
    87   43   45 1    
    88   45   46 1    
    89   45   49 1    
    90   45  107 1    
    91   46   47 1    
    92   46  108 1    
    93   46  109 1    
    94   47   48 1    
    95   48  110 1    
    96   48  111 1    
    97   49   50 am   BACKBONE|DICT|INTERRES
    98   49  112 1    
    99   50   51 2    
   100   50   52 1    
   101   52   53 1    
   102   52   54 1    
   103   52  113 1    
   104   53  114 1    
   105   53  115 1    
   106   53  116 1    
   107   54   55 am   BACKBONE|DICT|INTERRES
   108   54  117 1    
   109   55   56 2    
   110   55   57 1    
   111   57   58 1    
   112   57   59 1    
   113   57  118 1    
   114   58  119 1    
   115   58  120 1    
   116   58  121 1    
   117   59   60 am   BACKBONE|DICT|INTERRES
   118   59  122 1    
   119   60   61 2    
   120   60   62 1    
   121   62   63 1    
   122   62   64 1    
   123   62  123 1    
   124   63  124 1    
   125   63  125 1    
   126   63  126 1    
   127   64   65 am   BACKBONE|DICT|INTERRES
   128   64  127 1    
   129   65   66 2    
@<TRIPOS>SUBSTRUCTURE
     1 UNK         1 GROUP             0       ****    0 ROOT    
