@<TRIPOS>MOLECULE
3R135
127   129    1
SMALL
USER_CHARGES


@<TRIPOS>ATOM
      1 CA        -79.1463   30.6880  -76.4932 C.3       0 UNK        -0.1998 
      2 C         -80.1288   29.8721  -75.6659 C.2       0 UNK         0.4909 
      3 O         -81.3137   30.2046  -75.6205 O.2       0 UNK        -0.5240 
      4 N         -79.6370   28.8119  -75.0110 N.am      1 UNK        -0.4739 
      5 CA        -80.4051   27.8453  -74.2168 C.3       1 UNK         0.0864 
      6 C6        -81.1216   28.4905  -72.9916 C.3       11 UNK        -0.0881 
      7 S7        -81.0255   27.4321  -71.5069 S.3       11 UNK        -0.2682 
      8 C8        -79.7384   28.2761  -70.5268 C.3       11 UNK         0.0289 
      9 C9        -78.3552   28.1274  -71.1468 C.ar      11 UNK        -0.0687 
     10 C10       -77.5369   27.0471  -70.7993 C.ar      11 UNK        -0.0823 
     11 C11       -76.2719   26.8976  -71.3801 C.ar      11 UNK        -0.0830 
     12 C12       -75.8294   27.8453  -72.3079 C.ar      11 UNK        -0.1021 
     13 C13       -76.6299   28.9365  -72.6517 C.ar      11 UNK        -0.0753 
     14 C14       -77.8874   29.0763  -72.0612 C.ar      11 UNK        -0.0933 
     15 C15       -76.1464   29.9558  -73.6726 C.3       11 UNK         0.0166 
     16 S16       -75.6706   31.5349  -72.9016 S.3       11 UNK        -0.2615 
     17 C17       -74.1432   31.0940  -72.0007 C.3       11 UNK        -0.0865 
     18 CA        -72.8589   31.5028  -72.7697 C.3       10 UNK         0.0862 
     19 C         -71.5918   31.3702  -71.8723 C.2       10 UNK         0.5551 
     20 N         -70.5688   30.6118  -72.2503 N.am      10 UNK        -0.7319 
     21 O         -71.5322   31.9805  -70.8077 O.2       10 UNK        -0.5018 
     22 N         -72.7609   30.7986  -74.0566 N.am      10 UNK        -0.4509 
     23 C         -72.1111   31.2466  -75.1365 C.2       10 UNK         0.4899 
     24 O         -71.5793   32.3558  -75.2060 O.2       10 UNK        -0.4839 
     25 CA        -72.0441   30.2773  -76.3356 C.3       9 UNK         0.0222 
     26 CB        -70.8976   30.6168  -77.3112 C.3       9 UNK        -0.1966 
     27 N         -71.9849   28.8594  -75.9480 N.am      9 UNK        -0.4218 
     28 C         -71.0583   28.2693  -75.1709 C.2       9 UNK         0.5020 
     29 O         -70.1374   28.8809  -74.6276 O.2       9 UNK        -0.5274 
     30 CA        -71.1839   26.7542  -74.9138 C.3       8 UNK         0.0270 
     31 CB        -71.6089   26.4969  -73.4580 C.3       8 UNK        -0.1976 
     32 N         -72.1205   26.0807  -75.8174 N.am      8 UNK        -0.4313 
     33 C         -71.8912   25.8591  -77.1218 C.2       8 UNK         0.5041 
     34 O         -70.8146   26.0983  -77.6700 O.2       8 UNK        -0.5577 
     35 CA        -73.0534   25.3143  -77.9765 C.3       7 UNK         0.0284 
     36 CB        -72.8384   23.8241  -78.2847 C.3       7 UNK        -0.1958 
     37 N         -74.3799   25.5018  -77.3784 N.am      7 UNK        -0.4454 
     38 C         -74.9399   26.6903  -77.0996 C.2       7 UNK         0.5089 
     39 O         -74.4088   27.7699  -77.3622 O.2       7 UNK        -0.5125 
     40 CA        -76.2813   26.6870  -76.3402 C.3       6 UNK         0.0408 
     41 CB        -77.4458   26.8418  -77.3295 C.3       6 UNK        -0.1791 
     42 N         -76.5157   25.5026  -75.5068 N.am      6 UNK        -0.4762 
     43 C         -75.6904   25.0272  -74.5573 C.2       6 UNK         0.5007 
     44 O         -74.6057   25.5389  -74.2796 O.2       6 UNK        -0.5032 
     45 CA        -76.1211   23.7227  -73.8508 C.3       5 UNK         0.0783 
     46 C46       -77.0261   24.0454  -72.6289 C.3       11 UNK        -0.0857 
     47 S47       -76.1445   24.0903  -71.0333 S.3       11 UNK        -0.2512 
     48 C48       -75.3551   25.7375  -71.0008 C.3       11 UNK         0.0225 
     49 N         -76.7931   22.7795  -74.7544 N.am      5 UNK        -0.4615 
     50 C         -76.4040   22.3886  -75.9774 C.2       4 UNK         0.5053 
     51 O         -75.3198   22.6831  -76.4791 O.2       4 UNK        -0.5105 
     52 CA        -77.4227   21.5835  -76.8111 C.3       4 UNK         0.0263 
     53 CB        -76.9868   20.1129  -76.9115 C.3       4 UNK        -0.1981 
     54 N         -78.8094   21.6427  -76.3218 N.am      4 UNK        -0.4224 
     55 C         -79.5406   22.7555  -76.1558 C.2       3 UNK         0.4895 
     56 O         -79.1311   23.8927  -76.4106 O.2       3 UNK        -0.5091 
     57 CA        -80.9257   22.5638  -75.5244 C.3       3 UNK         0.0250 
     58 CB        -80.7985   22.0301  -74.0799 C.3       3 UNK        -0.1996 
     59 N         -81.6153   23.8499  -75.5233 N.am      3 UNK        -0.4254 
     60 C         -82.9055   24.0694  -75.2506 C.2       2 UNK         0.5004 
     61 O         -83.7120   23.1668  -75.0175 O.2       2 UNK        -0.5226 
     62 CA        -83.3629   25.5424  -75.2049 C.3       2 UNK         0.0269 
     63 CB        -84.7316   25.7145  -74.5191 C.3       2 UNK        -0.1926 
     64 N         -82.3871   26.4032  -74.5253 N.am      2 UNK        -0.4687 
     65 C         -81.3270   26.9780  -75.1077 C.2       1 UNK         0.5165 
     66 O         -81.0472   26.8014  -76.2956 O.2       1 UNK        -0.5079 
     67 H67       -78.9730   31.6557  -76.0231 H         1 UNK         0.0900 
     68 H68       -78.1865   30.1836  -76.6029 H         1 UNK         0.0900 
     69 H69       -79.5491   30.8607  -77.4910 H         1 UNK         0.0900 
     70 H70       -78.6587   28.5877  -75.1123 H         1 UNK         0.2959 
     71 H71       -79.6476   27.1535  -73.8437 H         1 UNK         0.1079 
     72 H72       -80.6791   29.4567  -72.7512 H         1 UNK         0.0837 
     73 H73       -82.1660   28.7256  -73.2062 H         1 UNK         0.0837 
     74 H74       -79.9943   29.3306  -70.4128 H         1 UNK         0.0685 
     75 H75       -79.7364   27.8568  -69.5196 H         1 UNK         0.0685 
     76 H76       -77.8877   26.3170  -70.0826 H         1 UNK         0.1434 
     77 H77       -74.8557   27.7347  -72.7640 H         1 UNK         0.1329 
     78 H78       -78.5013   29.9265  -72.3224 H         1 UNK         0.1335 
     79 H79       -75.3128   29.5615  -74.2546 H         1 UNK         0.0680 
     80 H80       -76.9459   30.1512  -74.3872 H         1 UNK         0.0680 
     81 H81       -74.1884   31.6072  -71.0382 H         1 UNK         0.1032 
     82 H82       -74.1312   30.0296  -71.7647 H         1 UNK         0.1032 
     83 H83       -72.9436   32.5698  -72.9855 H         1 UNK         0.0461 
     84 H84       -69.7611   30.5499  -71.6516 H         1 UNK         0.3453 
     85 H85       -70.5740   30.1133  -73.1339 H         1 UNK         0.3453 
     86 H86       -73.1438   29.8673  -74.0849 H         1 UNK         0.2984 
     87 H87       -72.9837   30.4017  -76.8757 H         1 UNK         0.0554 
     88 H88       -71.0086   31.6246  -77.7132 H         1 UNK         0.0847 
     89 H89       -70.8829   29.9318  -78.1590 H         1 UNK         0.0847 
     90 H90       -69.9238   30.5666  -76.8228 H         1 UNK         0.0847 
     91 H91       -72.7184   28.2799  -76.3455 H         1 UNK         0.3141 
     92 H92       -70.1947   26.3163  -75.0620 H         1 UNK         0.0743 
     93 H93       -70.8782   26.9072  -72.7594 H         1 UNK         0.0784 
     94 H94       -72.5693   26.9591  -73.2298 H         1 UNK         0.0784 
     95 H95       -71.6926   25.4302  -73.2494 H         1 UNK         0.0784 
     96 H96       -73.0286   25.8400  -75.4272 H         1 UNK         0.3213 
     97 H97       -73.0419   25.8633  -78.9204 H         1 UNK         0.0855 
     98 H98       -72.8144   23.2247  -77.3737 H         1 UNK         0.0814 
     99 H99       -71.8917   23.6653  -78.8030 H         1 UNK         0.0814 
    100 H100      -73.6281   23.4304  -78.9248 H         1 UNK         0.0814 
    101 H101      -74.8634   24.6585  -77.0864 H         1 UNK         0.3105 
    102 H102      -76.2785   27.5508  -75.6733 H         1 UNK         0.0547 
    103 H103      -78.4035   26.9041  -76.8151 H         1 UNK         0.0837 
    104 H104      -77.3377   27.7487  -77.9261 H         1 UNK         0.0837 
    105 H105      -77.4995   25.9996  -78.0207 H         1 UNK         0.0837 
    106 H106      -77.3655   24.9832  -75.7007 H         1 UNK         0.3020 
    107 H107      -75.2102   23.2245  -73.5126 H         1 UNK         0.1245 
    108 H108      -77.7775   23.2641  -72.5041 H         1 UNK         0.0781 
    109 H109      -77.6104   24.9571  -72.7686 H         1 UNK         0.0781 
    110 H110      -74.4796   25.7085  -71.6504 H         1 UNK         0.0836 
    111 H111      -74.9725   25.9159  -69.9952 H         1 UNK         0.0836 
    112 H112      -77.6997   22.4608  -74.4500 H         1 UNK         0.3022 
    113 H113      -77.4153   22.0125  -77.8152 H         1 UNK         0.0747 
    114 H114      -77.6352   19.5505  -77.5837 H         1 UNK         0.0793 
    115 H115      -75.9717   20.0316  -77.3033 H         1 UNK         0.0793 
    116 H116      -77.0005   19.6204  -75.9384 H         1 UNK         0.0793 
    117 H117      -79.2288   20.7562  -76.0790 H         1 UNK         0.3047 
    118 H118      -81.4907   21.8585  -76.1371 H         1 UNK         0.0822 
    119 H119      -80.2756   21.0738  -74.0468 H         1 UNK         0.0807 
    120 H120      -81.7755   21.8648  -73.6259 H         1 UNK         0.0807 
    121 H121      -80.2524   22.7260  -73.4417 H         1 UNK         0.0807 
    122 H122      -81.0260   24.6351  -75.7841 H         1 UNK         0.2946 
    123 H123      -83.4693   25.8691  -76.2422 H         1 UNK         0.1144 
    124 H124      -85.0474   26.7580  -74.5200 H         1 UNK         0.0793 
    125 H125      -84.7101   25.3708  -73.4841 H         1 UNK         0.0793 
    126 H126      -85.5053   25.1458  -75.0369 H         1 UNK         0.0793 
    127 H127      -82.5200   26.5406  -73.5322 H         1 UNK         0.2896 
@<TRIPOS>BOND
     1    1    2 1    
     2    1   67 1    
     3    1   68 1    
     4    1   69 1    
     5    2    3 2    
     6    2    4 am   BACKBONE|DICT|INTERRES
     7    4    5 1    
     8    4   70 1    
     9    5    6 1    
    10    5   65 1    
    11    5   71 1    
    12    6    7 1    
    13    6   72 1    
    14    6   73 1    
    15    7    8 1    
    16    8    9 1    
    17    8   74 1    
    18    8   75 1    
    19    9   10 ar   
    20    9   14 ar   
    21   10   11 ar   
    22   10   76 1    
    23   11   12 ar   
    24   11   48 1    
    25   12   13 ar   
    26   12   77 1    
    27   13   14 ar   
    28   13   15 1    
    29   14   78 1    
    30   15   16 1    
    31   15   79 1    
    32   15   80 1    
    33   16   17 1    
    34   17   18 1    
    35   17   81 1    
    36   17   82 1    
    37   18   19 1    
    38   18   22 1    
    39   18   83 1    
    40   19   20 am   BACKBONE|DICT|INTERRES
    41   19   21 2    
    42   20   84 1    
    43   20   85 1    
    44   22   23 am   BACKBONE|DICT|INTERRES
    45   22   86 1    
    46   23   24 2    
    47   23   25 1    
    48   25   26 1    
    49   25   27 1    
    50   25   87 1    
    51   26   88 1    
    52   26   89 1    
    53   26   90 1    
    54   27   28 am   BACKBONE|DICT|INTERRES
    55   27   91 1    
    56   28   29 2    
    57   28   30 1    
    58   30   31 1    
    59   30   32 1    
    60   30   92 1    
    61   31   93 1    
    62   31   94 1    
    63   31   95 1    
    64   32   33 am   BACKBONE|DICT|INTERRES
    65   32   96 1    
    66   33   34 2    
    67   33   35 1    
    68   35   36 1    
    69   35   37 1    
    70   35   97 1    
    71   36   98 1    
    72   36   99 1    
    73   36  100 1    
    74   37   38 am   BACKBONE|DICT|INTERRES
    75   37  101 1    
    76   38   39 2    
    77   38   40 1    
    78   40   41 1    
    79   40   42 1    
    80   40  102 1    
    81   41  103 1    
    82   41  104 1    
    83   41  105 1    
    84   42   43 am   BACKBONE|DICT|INTERRES
    85   42  106 1    
    86   43   44 2    
    87   43   45 1    
    88   45   46 1    
    89   45   49 1    
    90   45  107 1    
    91   46   47 1    
    92   46  108 1    
    93   46  109 1    
    94   47   48 1    
    95   48  110 1    
    96   48  111 1    
    97   49   50 am   BACKBONE|DICT|INTERRES
    98   49  112 1    
    99   50   51 2    
   100   50   52 1    
   101   52   53 1    
   102   52   54 1    
   103   52  113 1    
   104   53  114 1    
   105   53  115 1    
   106   53  116 1    
   107   54   55 am   BACKBONE|DICT|INTERRES
   108   54  117 1    
   109   55   56 2    
   110   55   57 1    
   111   57   58 1    
   112   57   59 1    
   113   57  118 1    
   114   58  119 1    
   115   58  120 1    
   116   58  121 1    
   117   59   60 am   BACKBONE|DICT|INTERRES
   118   59  122 1    
   119   60   61 2    
   120   60   62 1    
   121   62   63 1    
   122   62   64 1    
   123   62  123 1    
   124   63  124 1    
   125   63  125 1    
   126   63  126 1    
   127   64   65 am   BACKBONE|DICT|INTERRES
   128   64  127 1    
   129   65   66 2    
@<TRIPOS>SUBSTRUCTURE
     1 UNK         1 GROUP             0       ****    0 ROOT    
