@<TRIPOS>MOLECULE
3R135
127   129    1
SMALL
USER_CHARGES


@<TRIPOS>ATOM
      1 CA        -81.0631   25.3333  -69.5183 C.3       0 UNK        -0.1998 
      2 C         -82.0464   25.8967  -70.5330 C.2       0 UNK         0.4909 
      3 O         -83.2540   25.7117  -70.3802 O.2       0 UNK        -0.5240 
      4 N         -81.5354   26.5712  -71.5704 N.am      1 UNK        -0.4739 
      5 CA        -82.3233   27.1764  -72.6566 C.3       1 UNK         0.0864 
      6 C6        -81.8873   28.6369  -72.9526 C.3       11 UNK        -0.0881 
      7 S7        -82.1556   29.7274  -71.5085 S.3       11 UNK        -0.2682 
      8 C8        -80.8214   30.9672  -71.6876 C.3       11 UNK         0.0289 
      9 C9        -79.3875   30.4657  -71.4899 C.ar      11 UNK        -0.0687 
     10 C10       -79.0874   29.1650  -71.0625 C.ar      11 UNK        -0.0823 
     11 C11       -77.7648   28.7258  -70.9799 C.ar      11 UNK        -0.0830 
     12 C12       -76.7286   29.6236  -71.2356 C.ar      11 UNK        -0.1021 
     13 C13       -77.0039   30.9294  -71.6418 C.ar      11 UNK        -0.0753 
     14 C14       -78.3332   31.3429  -71.7729 C.ar      11 UNK        -0.0933 
     15 C15       -75.8538   31.8715  -71.9548 C.3       11 UNK         0.0166 
     16 S16       -75.1231   31.4962  -73.5834 S.3       11 UNK        -0.2615 
     17 C17       -73.3352   31.6505  -73.2265 C.3       11 UNK        -0.0865 
     18 CA        -72.5648   30.3011  -73.2333 C.3       10 UNK         0.0862 
     19 C         -73.0247   29.3094  -72.1296 C.2       10 UNK         0.5551 
     20 N         -73.4741   28.1023  -72.4548 N.am      10 UNK        -0.7319 
     21 O         -72.9455   29.6337  -70.9476 O.2       10 UNK        -0.5018 
     22 N         -72.4718   29.7066  -74.5747 N.am      10 UNK        -0.4509 
     23 C         -71.5157   30.0020  -75.4623 C.2       10 UNK         0.4899 
     24 O         -70.6704   30.8834  -75.2930 O.2       10 UNK        -0.4839 
     25 CA        -71.4934   29.1497  -76.7436 C.3       9 UNK         0.0222 
     26 CB        -70.2606   29.4173  -77.6323 C.3       9 UNK        -0.1966 
     27 N         -71.6301   27.7155  -76.4661 N.am      9 UNK        -0.4218 
     28 C         -70.8371   26.9342  -75.7145 C.2       9 UNK         0.5020 
     29 O         -69.8182   27.3305  -75.1470 O.2       9 UNK        -0.5274 
     30 CA        -71.2451   25.4547  -75.5524 C.3       8 UNK         0.0270 
     31 CB        -71.7467   25.1873  -74.1236 C.3       8 UNK        -0.1976 
     32 N         -72.2702   25.0178  -76.5050 N.am      8 UNK        -0.4313 
     33 C         -72.0588   24.8072  -77.8120 C.2       8 UNK         0.5041 
     34 O         -70.9483   24.8476  -78.3425 O.2       8 UNK        -0.5577 
     35 CA        -73.3040   24.5638  -78.6823 C.3       7 UNK         0.0284 
     36 CB        -73.7172   23.0845  -78.6395 C.3       7 UNK        -0.1958 
     37 N         -74.4383   25.4098  -78.2946 N.am      7 UNK        -0.4454 
     38 C         -74.4540   26.7491  -78.3649 C.2       7 UNK         0.5089 
     39 O         -73.5294   27.4192  -78.8207 O.2       7 UNK        -0.5125 
     40 CA        -75.6776   27.4710  -77.7810 C.3       6 UNK         0.0408 
     41 CB        -76.8219   27.5290  -78.8050 C.3       6 UNK        -0.1791 
     42 N         -76.1488   26.8492  -76.5438 N.am      6 UNK        -0.4762 
     43 C         -75.5147   26.9042  -75.3625 C.2       6 UNK         0.5007 
     44 O         -74.4640   27.5210  -75.1652 O.2       6 UNK        -0.5032 
     45 CA        -76.1593   26.1060  -74.2112 C.3       5 UNK         0.0783 
     46 C46       -77.2711   26.9495  -73.5460 C.3       11 UNK        -0.0857 
     47 S47       -77.9994   26.1705  -72.0579 S.3       11 UNK        -0.2512 
     48 C48       -77.4493   27.2634  -70.6976 C.3       11 UNK         0.0225 
     49 N         -76.6467   24.8027  -74.6749 N.am      5 UNK        -0.4615 
     50 C         -75.8528   23.8098  -75.1034 C.2       4 UNK         0.5053 
     51 O         -74.6245   23.8839  -75.1287 O.2       4 UNK        -0.5105 
     52 CA        -76.5374   22.5386  -75.6394 C.3       4 UNK         0.0263 
     53 CB        -76.8235   21.5605  -74.4893 C.3       4 UNK        -0.1981 
     54 N         -77.7793   22.8098  -76.3672 N.am      4 UNK        -0.4224 
     55 C         -77.8824   23.5850  -77.4569 C.2       3 UNK         0.4895 
     56 O         -76.9146   24.0807  -78.0311 O.2       3 UNK        -0.5091 
     57 CA        -79.2983   23.9102  -77.9693 C.3       3 UNK         0.0250 
     58 CB        -79.6395   23.0347  -79.1853 C.3       3 UNK        -0.1996 
     59 N         -80.3607   23.7808  -76.9628 N.am      3 UNK        -0.4254 
     60 C         -80.4156   24.4480  -75.8009 C.2       2 UNK         0.5004 
     61 O         -79.5494   25.2427  -75.4267 O.2       2 UNK        -0.5226 
     62 CA        -81.5950   24.0961  -74.8805 C.3       2 UNK         0.0269 
     63 CB        -81.3846   22.7086  -74.2484 C.3       2 UNK        -0.1926 
     64 N         -81.7534   25.0702  -73.8021 N.am      2 UNK        -0.4687 
     65 C         -82.2942   26.2906  -73.9234 C.2       1 UNK         0.5165 
     66 O         -82.7782   26.7120  -74.9756 O.2       1 UNK        -0.5079 
     67 H67       -81.2128   24.2598  -69.4061 H         1 UNK         0.0900 
     68 H68       -80.0282   25.4997  -69.8145 H         1 UNK         0.0900 
     69 H69       -81.2177   25.8026  -68.5471 H         1 UNK         0.0900 
     70 H70       -80.5320   26.6530  -71.6671 H         1 UNK         0.2959 
     71 H71       -83.3752   27.2139  -72.3649 H         1 UNK         0.1079 
     72 H72       -82.4606   29.0531  -73.7832 H         1 UNK         0.0837 
     73 H73       -80.8408   28.6684  -73.2607 H         1 UNK         0.0837 
     74 H74       -80.9084   31.4207  -72.6762 H         1 UNK         0.0685 
     75 H75       -81.0059   31.7644  -70.9663 H         1 UNK         0.0685 
     76 H76       -79.8757   28.4680  -70.8327 H         1 UNK         0.1434 
     77 H77       -75.7027   29.2940  -71.1635 H         1 UNK         0.1329 
     78 H78       -78.5483   32.3495  -72.1052 H         1 UNK         0.1335 
     79 H79       -76.1861   32.9106  -71.9418 H         1 UNK         0.0680 
     80 H80       -75.1074   31.7777  -71.1648 H         1 UNK         0.0680 
     81 H81       -72.9033   32.3179  -73.9736 H         1 UNK         0.1032 
     82 H82       -73.1821   32.1622  -72.2752 H         1 UNK         0.1032 
     83 H83       -71.5430   30.5361  -72.9280 H         1 UNK         0.0461 
     84 H84       -73.6080   27.8359  -73.4206 H         1 UNK         0.3453 
     85 H85       -73.7268   27.4686  -71.7148 H         1 UNK         0.3453 
     86 H86       -73.1500   28.9859  -74.7984 H         1 UNK         0.2984 
     87 H87       -72.3782   29.4369  -77.3130 H         1 UNK         0.0554 
     88 H88       -70.2949   28.8209  -78.5441 H         1 UNK         0.0847 
     89 H89       -69.3291   29.1861  -77.1145 H         1 UNK         0.0847 
     90 H90       -70.2148   30.4648  -77.9326 H         1 UNK         0.0847 
     91 H91       -72.4376   27.2806  -76.8931 H         1 UNK         0.3141 
     92 H92       -70.3482   24.8535  -75.7157 H         1 UNK         0.0743 
     93 H93       -72.6696   25.7272  -73.9137 H         1 UNK         0.0784 
     94 H94       -71.9396   24.1262  -73.9645 H         1 UNK         0.0784 
     95 H95       -71.0097   25.4976  -73.3815 H         1 UNK         0.0784 
     96 H96       -73.2045   24.8712  -76.1321 H         1 UNK         0.3213 
     97 H97       -73.0432   24.8155  -79.7125 H         1 UNK         0.0855 
     98 H98       -73.9673   22.7652  -77.6281 H         1 UNK         0.0814 
     99 H99       -72.9071   22.4445  -78.9914 H         1 UNK         0.0814 
    100 H100      -74.5819   22.8939  -79.2755 H         1 UNK         0.0814 
    101 H101      -75.2841   24.9328  -77.9870 H         1 UNK         0.3105 
    102 H102      -75.3805   28.4963  -77.5492 H         1 UNK         0.0547 
    103 H103      -76.4993   28.0310  -79.7181 H         1 UNK         0.0837 
    104 H104      -77.1688   26.5349  -79.0878 H         1 UNK         0.0837 
    105 H105      -77.6753   28.0843  -78.4157 H         1 UNK         0.0837 
    106 H106      -76.9873   26.2886  -76.6068 H         1 UNK         0.3020 
    107 H107      -75.3792   25.9229  -73.4693 H         1 UNK         0.1245 
    108 H108      -78.0840   27.1355  -74.2500 H         1 UNK         0.0781 
    109 H109      -76.8765   27.9336  -73.2981 H         1 UNK         0.0781 
    110 H110      -76.3786   27.1201  -70.5436 H         1 UNK         0.0836 
    111 H111      -77.9352   26.9589  -69.7700 H         1 UNK         0.0836 
    112 H112      -77.6545   24.7002  -74.7279 H         1 UNK         0.3022 
    113 H113      -75.8472   22.0572  -76.3342 H         1 UNK         0.0747 
    114 H114      -77.2299   20.6191  -74.8596 H         1 UNK         0.0793 
    115 H115      -75.9091   21.3239  -73.9432 H         1 UNK         0.0793 
    116 H116      -77.5332   21.9754  -73.7721 H         1 UNK         0.0793 
    117 H117      -78.6291   22.4397  -75.9691 H         1 UNK         0.3047 
    118 H118      -79.2849   24.9532  -78.2924 H         1 UNK         0.0822 
    119 H119      -79.6994   21.9786  -78.9191 H         1 UNK         0.0807 
    120 H120      -78.8794   23.1320  -79.9621 H         1 UNK         0.0807 
    121 H121      -80.5914   23.3250  -79.6304 H         1 UNK         0.0807 
    122 H122      -81.1045   23.1334  -77.1829 H         1 UNK         0.2946 
    123 H123      -82.5089   24.0846  -75.4792 H         1 UNK         0.1144 
    124 H124      -82.2143   22.4431  -73.5928 H         1 UNK         0.0793 
    125 H125      -80.4674   22.6678  -73.6589 H         1 UNK         0.0793 
    126 H126      -81.3191   21.9295  -75.0089 H         1 UNK         0.0793 
    127 H127      -81.3569   24.8231  -72.9079 H         1 UNK         0.2896 
@<TRIPOS>BOND
     1    1    2 1    
     2    1   67 1    
     3    1   68 1    
     4    1   69 1    
     5    2    3 2    
     6    2    4 am   BACKBONE|DICT|INTERRES
     7    4    5 1    
     8    4   70 1    
     9    5    6 1    
    10    5   65 1    
    11    5   71 1    
    12    6    7 1    
    13    6   72 1    
    14    6   73 1    
    15    7    8 1    
    16    8    9 1    
    17    8   74 1    
    18    8   75 1    
    19    9   10 ar   
    20    9   14 ar   
    21   10   11 ar   
    22   10   76 1    
    23   11   12 ar   
    24   11   48 1    
    25   12   13 ar   
    26   12   77 1    
    27   13   14 ar   
    28   13   15 1    
    29   14   78 1    
    30   15   16 1    
    31   15   79 1    
    32   15   80 1    
    33   16   17 1    
    34   17   18 1    
    35   17   81 1    
    36   17   82 1    
    37   18   19 1    
    38   18   22 1    
    39   18   83 1    
    40   19   20 am   BACKBONE|DICT|INTERRES
    41   19   21 2    
    42   20   84 1    
    43   20   85 1    
    44   22   23 am   BACKBONE|DICT|INTERRES
    45   22   86 1    
    46   23   24 2    
    47   23   25 1    
    48   25   26 1    
    49   25   27 1    
    50   25   87 1    
    51   26   88 1    
    52   26   89 1    
    53   26   90 1    
    54   27   28 am   BACKBONE|DICT|INTERRES
    55   27   91 1    
    56   28   29 2    
    57   28   30 1    
    58   30   31 1    
    59   30   32 1    
    60   30   92 1    
    61   31   93 1    
    62   31   94 1    
    63   31   95 1    
    64   32   33 am   BACKBONE|DICT|INTERRES
    65   32   96 1    
    66   33   34 2    
    67   33   35 1    
    68   35   36 1    
    69   35   37 1    
    70   35   97 1    
    71   36   98 1    
    72   36   99 1    
    73   36  100 1    
    74   37   38 am   BACKBONE|DICT|INTERRES
    75   37  101 1    
    76   38   39 2    
    77   38   40 1    
    78   40   41 1    
    79   40   42 1    
    80   40  102 1    
    81   41  103 1    
    82   41  104 1    
    83   41  105 1    
    84   42   43 am   BACKBONE|DICT|INTERRES
    85   42  106 1    
    86   43   44 2    
    87   43   45 1    
    88   45   46 1    
    89   45   49 1    
    90   45  107 1    
    91   46   47 1    
    92   46  108 1    
    93   46  109 1    
    94   47   48 1    
    95   48  110 1    
    96   48  111 1    
    97   49   50 am   BACKBONE|DICT|INTERRES
    98   49  112 1    
    99   50   51 2    
   100   50   52 1    
   101   52   53 1    
   102   52   54 1    
   103   52  113 1    
   104   53  114 1    
   105   53  115 1    
   106   53  116 1    
   107   54   55 am   BACKBONE|DICT|INTERRES
   108   54  117 1    
   109   55   56 2    
   110   55   57 1    
   111   57   58 1    
   112   57   59 1    
   113   57  118 1    
   114   58  119 1    
   115   58  120 1    
   116   58  121 1    
   117   59   60 am   BACKBONE|DICT|INTERRES
   118   59  122 1    
   119   60   61 2    
   120   60   62 1    
   121   62   63 1    
   122   62   64 1    
   123   62  123 1    
   124   63  124 1    
   125   63  125 1    
   126   63  126 1    
   127   64   65 am   BACKBONE|DICT|INTERRES
   128   64  127 1    
   129   65   66 2    
@<TRIPOS>SUBSTRUCTURE
     1 UNK         1 GROUP             0       ****    0 ROOT    
