@<TRIPOS>MOLECULE
3R135
127   129    1
SMALL
USER_CHARGES


@<TRIPOS>ATOM
      1 CA        -84.1237   30.3438  -76.6428 C.3       0 UNK        -0.1998 
      2 C         -82.8734   29.5150  -76.3907 C.2       0 UNK         0.4909 
      3 O         -82.1860   29.1380  -77.3406 O.2       0 UNK        -0.5240 
      4 N         -82.5685   29.2365  -75.1180 N.am      1 UNK        -0.4739 
      5 CA        -81.4312   28.4140  -74.6911 C.3       1 UNK         0.0864 
      6 C6        -81.1469   28.5680  -73.1773 C.3       11 UNK        -0.0881 
      7 S7        -80.6858   30.2753  -72.7391 S.3       11 UNK        -0.2682 
      8 C8        -80.1296   30.0629  -71.0193 C.3       11 UNK         0.0289 
      9 C9        -78.7540   29.4161  -70.9346 C.ar      11 UNK        -0.0687 
     10 C10       -78.6116   28.0992  -70.4865 C.ar      11 UNK        -0.0823 
     11 C11       -77.3437   27.5210  -70.3633 C.ar      11 UNK        -0.0830 
     12 C12       -76.2146   28.2720  -70.7139 C.ar      11 UNK        -0.1021 
     13 C13       -76.3426   29.5834  -71.1843 C.ar      11 UNK        -0.0753 
     14 C14       -77.6165   30.1528  -71.2748 C.ar      11 UNK        -0.0933 
     15 C15       -75.1051   30.3932  -71.5585 C.3       11 UNK         0.0166 
     16 S16       -75.2238   31.0971  -73.2352 S.3       11 UNK        -0.2615 
     17 C17       -73.5566   31.8016  -73.4708 C.3       11 UNK        -0.0865 
     18 CA        -72.7654   31.0830  -74.6072 C.3       10 UNK         0.0862 
     19 C         -71.4477   31.8112  -75.0222 C.2       10 UNK         0.5551 
     20 N         -71.4245   33.1391  -75.0269 N.am      10 UNK        -0.7319 
     21 O         -70.4539   31.1912  -75.3985 O.2       10 UNK        -0.5018 
     22 N         -72.5893   29.6432  -74.3477 N.am      10 UNK        -0.4509 
     23 C         -71.8455   29.1027  -73.3727 C.2       10 UNK         0.4899 
     24 O         -71.2099   29.7612  -72.5481 O.2       10 UNK        -0.4839 
     25 CA        -71.8194   27.5690  -73.2589 C.3       9 UNK         0.0222 
     26 CB        -72.7959   27.1032  -72.1670 C.3       9 UNK        -0.1966 
     27 N         -72.1274   26.8617  -74.5038 N.am      9 UNK        -0.4218 
     28 C         -71.2877   26.7214  -75.5392 C.2       9 UNK         0.5020 
     29 O         -70.1719   27.2394  -75.5903 O.2       9 UNK        -0.5274 
     30 CA        -71.7536   25.8327  -76.7042 C.3       8 UNK         0.0270 
     31 CB        -71.4988   24.3510  -76.3801 C.3       8 UNK        -0.1976 
     32 N         -73.1764   26.0209  -76.9904 N.am      8 UNK        -0.4313 
     33 C         -73.6696   26.6311  -78.0761 C.2       8 UNK         0.5041 
     34 O         -72.9762   27.0417  -79.0079 O.2       8 UNK        -0.5577 
     35 CA        -75.1981   26.8315  -78.1417 C.3       7 UNK         0.0284 
     36 CB        -75.8468   25.7101  -78.9629 C.3       7 UNK        -0.1958 
     37 N         -75.8529   26.9165  -76.8309 N.am      7 UNK        -0.4454 
     38 C         -75.5856   27.8635  -75.9211 C.2       7 UNK         0.5089 
     39 O         -74.7899   28.7828  -76.1084 O.2       7 UNK        -0.5125 
     40 CA        -76.2773   27.7462  -74.5540 C.3       6 UNK         0.0408 
     41 CB        -77.6111   28.5021  -74.5858 C.3       6 UNK        -0.1791 
     42 N         -76.5045   26.3841  -74.0543 N.am      6 UNK        -0.4762 
     43 C         -75.6119   25.3853  -73.9945 C.2       6 UNK         0.5007 
     44 O         -74.4984   25.4253  -74.5189 O.2       6 UNK        -0.5032 
     45 CA        -76.0129   24.1268  -73.2153 C.3       5 UNK         0.0783 
     46 C46       -76.9272   24.3779  -71.9854 C.3       11 UNK        -0.0857 
     47 S47       -75.9775   25.0615  -70.5874 S.3       11 UNK        -0.2512 
     48 C48       -77.2081   26.1239  -69.7610 C.3       11 UNK         0.0225 
     49 N         -76.5724   23.1491  -74.1459 N.am      5 UNK        -0.4615 
     50 C         -76.3006   21.8369  -74.1001 C.2       4 UNK         0.5053 
     51 O         -75.5455   21.3328  -73.2679 O.2       4 UNK        -0.5105 
     52 CA        -76.9864   20.9053  -75.1178 C.3       4 UNK         0.0263 
     53 CB        -77.9010   19.9012  -74.3953 C.3       4 UNK        -0.1981 
     54 N         -77.7789   21.6114  -76.1231 N.am      4 UNK        -0.4224 
     55 C         -77.2980   22.1667  -77.2432 C.2       3 UNK         0.4895 
     56 O         -76.1145   22.1307  -77.5773 O.2       3 UNK        -0.5091 
     57 CA        -78.3192   22.9024  -78.1299 C.3       3 UNK         0.0250 
     58 CB        -78.8671   21.9603  -79.2138 C.3       3 UNK        -0.1996 
     59 N         -79.4361   23.4691  -77.3663 N.am      3 UNK        -0.4254 
     60 C         -79.3214   24.4657  -76.4786 C.2       2 UNK         0.5004 
     61 O         -78.2671   25.0627  -76.2370 O.2       2 UNK        -0.5226 
     62 CA        -80.5770   24.7903  -75.6675 C.3       2 UNK         0.0269 
     63 CB        -80.6207   23.9363  -74.3864 C.3       2 UNK        -0.1926 
     64 N         -80.5672   26.2064  -75.3196 N.am      2 UNK        -0.4687 
     65 C         -81.6577   26.9292  -75.0401 C.2       1 UNK         0.5165 
     66 O         -82.7986   26.4593  -75.0134 O.2       1 UNK        -0.5079 
     67 H67       -84.8285   29.7812  -77.2530 H         1 UNK         0.0900 
     68 H68       -83.8667   31.2588  -77.1742 H         1 UNK         0.0900 
     69 H69       -84.6237   30.6205  -75.7151 H         1 UNK         0.0900 
     70 H70       -83.1706   29.5653  -74.3772 H         1 UNK         0.2959 
     71 H71       -80.5572   28.7597  -75.2456 H         1 UNK         0.1079 
     72 H72       -80.3360   27.9048  -72.8714 H         1 UNK         0.0837 
     73 H73       -82.0182   28.2774  -72.5873 H         1 UNK         0.0837 
     74 H74       -80.8704   29.4841  -70.4658 H         1 UNK         0.0685 
     75 H75       -80.0912   31.0426  -70.5415 H         1 UNK         0.0685 
     76 H76       -79.4895   27.5352  -70.2027 H         1 UNK         0.1434 
     77 H77       -75.2315   27.8390  -70.5988 H         1 UNK         0.1329 
     78 H78       -77.7247   31.1718  -71.6203 H         1 UNK         0.1335 
     79 H79       -74.2100   29.7732  -71.4995 H         1 UNK         0.0680 
     80 H80       -74.9759   31.2011  -70.8373 H         1 UNK         0.0680 
     81 H81       -73.7040   32.8563  -73.7037 H         1 UNK         0.1032 
     82 H82       -72.9981   31.7788  -72.5338 H         1 UNK         0.1032 
     83 H83       -73.3828   31.1246  -75.5051 H         1 UNK         0.0461 
     84 H84       -72.2311   33.6834  -74.7641 H         1 UNK         0.3453 
     85 H85       -70.5802   33.6086  -75.3159 H         1 UNK         0.3453 
     86 H86       -73.1017   29.0367  -74.9775 H         1 UNK         0.2984 
     87 H87       -70.8113   27.2838  -72.9507 H         1 UNK         0.0554 
     88 H88       -72.7366   26.0261  -72.0104 H         1 UNK         0.0847 
     89 H89       -73.8260   27.3468  -72.4248 H         1 UNK         0.0847 
     90 H90       -72.5755   27.5817  -71.2118 H         1 UNK         0.0847 
     91 H91       -73.0158   26.3642  -74.5280 H         1 UNK         0.3141 
     92 H92       -71.1514   26.0942  -77.5768 H         1 UNK         0.0743 
     93 H93       -72.0780   24.0187  -75.5173 H         1 UNK         0.0784 
     94 H94       -71.7612   23.7125  -77.2237 H         1 UNK         0.0784 
     95 H95       -70.4457   24.1754  -76.1555 H         1 UNK         0.0784 
     96 H96       -73.8256   25.7340  -76.2623 H         1 UNK         0.3213 
     97 H97       -75.3772   27.7779  -78.6566 H         1 UNK         0.0855 
     98 H98       -75.6907   24.7375  -78.4957 H         1 UNK         0.0814 
     99 H99       -75.4192   25.6620  -79.9653 H         1 UNK         0.0814 
    100 H100      -76.9188   25.8722  -79.0754 H         1 UNK         0.0814 
    101 H101      -76.5372   26.2032  -76.5975 H         1 UNK         0.3105 
    102 H102      -75.6288   28.2324  -73.8247 H         1 UNK         0.0547 
    103 H103      -77.4585   29.5503  -74.8467 H         1 UNK         0.0837 
    104 H104      -78.2884   28.0778  -75.3253 H         1 UNK         0.0837 
    105 H105      -78.1014   28.4846  -73.6142 H         1 UNK         0.0837 
    106 H106      -77.3969   26.2309  -73.6108 H         1 UNK         0.3020 
    107 H107      -75.0664   23.7291  -72.8393 H         1 UNK         0.1245 
    108 H108      -77.3482   23.4317  -71.6417 H         1 UNK         0.0781 
    109 H109      -77.7846   25.0098  -72.2199 H         1 UNK         0.0781 
    110 H110      -76.9117   26.2376  -68.7178 H         1 UNK         0.0836 
    111 H111      -78.1689   25.6075  -69.7472 H         1 UNK         0.0836 
    112 H112      -77.1494   23.5182  -74.8907 H         1 UNK         0.3022 
    113 H113      -76.1975   20.3440  -75.6228 H         1 UNK         0.0747 
    114 H114      -78.3540   19.2005  -75.0969 H         1 UNK         0.0793 
    115 H115      -77.3400   19.3100  -73.6702 H         1 UNK         0.0793 
    116 H116      -78.7041   20.4026  -73.8540 H         1 UNK         0.0793 
    117 H117      -78.7690   21.6863  -75.9440 H         1 UNK         0.3047 
    118 H118      -77.8024   23.7220  -78.6271 H         1 UNK         0.0822 
    119 H119      -79.5379   22.4854  -79.8941 H         1 UNK         0.0807 
    120 H120      -79.4135   21.1200  -78.7838 H         1 UNK         0.0807 
    121 H121      -78.0567   21.5475  -79.8165 H         1 UNK         0.0807 
    122 H122      -80.3390   23.0371  -77.5039 H         1 UNK         0.2946 
    123 H123      -81.4550   24.5775  -76.2819 H         1 UNK         0.1144 
    124 H124      -80.6313   22.8716  -74.6215 H         1 UNK         0.0793 
    125 H125      -81.5168   24.1426  -73.8011 H         1 UNK         0.0793 
    126 H126      -79.7568   24.1221  -73.7478 H         1 UNK         0.0793 
    127 H127      -79.6556   26.6397  -75.3717 H         1 UNK         0.2896 
@<TRIPOS>BOND
     1    1    2 1    
     2    1   67 1    
     3    1   68 1    
     4    1   69 1    
     5    2    3 2    
     6    2    4 am   BACKBONE|DICT|INTERRES
     7    4    5 1    
     8    4   70 1    
     9    5    6 1    
    10    5   65 1    
    11    5   71 1    
    12    6    7 1    
    13    6   72 1    
    14    6   73 1    
    15    7    8 1    
    16    8    9 1    
    17    8   74 1    
    18    8   75 1    
    19    9   10 ar   
    20    9   14 ar   
    21   10   11 ar   
    22   10   76 1    
    23   11   12 ar   
    24   11   48 1    
    25   12   13 ar   
    26   12   77 1    
    27   13   14 ar   
    28   13   15 1    
    29   14   78 1    
    30   15   16 1    
    31   15   79 1    
    32   15   80 1    
    33   16   17 1    
    34   17   18 1    
    35   17   81 1    
    36   17   82 1    
    37   18   19 1    
    38   18   22 1    
    39   18   83 1    
    40   19   20 am   BACKBONE|DICT|INTERRES
    41   19   21 2    
    42   20   84 1    
    43   20   85 1    
    44   22   23 am   BACKBONE|DICT|INTERRES
    45   22   86 1    
    46   23   24 2    
    47   23   25 1    
    48   25   26 1    
    49   25   27 1    
    50   25   87 1    
    51   26   88 1    
    52   26   89 1    
    53   26   90 1    
    54   27   28 am   BACKBONE|DICT|INTERRES
    55   27   91 1    
    56   28   29 2    
    57   28   30 1    
    58   30   31 1    
    59   30   32 1    
    60   30   92 1    
    61   31   93 1    
    62   31   94 1    
    63   31   95 1    
    64   32   33 am   BACKBONE|DICT|INTERRES
    65   32   96 1    
    66   33   34 2    
    67   33   35 1    
    68   35   36 1    
    69   35   37 1    
    70   35   97 1    
    71   36   98 1    
    72   36   99 1    
    73   36  100 1    
    74   37   38 am   BACKBONE|DICT|INTERRES
    75   37  101 1    
    76   38   39 2    
    77   38   40 1    
    78   40   41 1    
    79   40   42 1    
    80   40  102 1    
    81   41  103 1    
    82   41  104 1    
    83   41  105 1    
    84   42   43 am   BACKBONE|DICT|INTERRES
    85   42  106 1    
    86   43   44 2    
    87   43   45 1    
    88   45   46 1    
    89   45   49 1    
    90   45  107 1    
    91   46   47 1    
    92   46  108 1    
    93   46  109 1    
    94   47   48 1    
    95   48  110 1    
    96   48  111 1    
    97   49   50 am   BACKBONE|DICT|INTERRES
    98   49  112 1    
    99   50   51 2    
   100   50   52 1    
   101   52   53 1    
   102   52   54 1    
   103   52  113 1    
   104   53  114 1    
   105   53  115 1    
   106   53  116 1    
   107   54   55 am   BACKBONE|DICT|INTERRES
   108   54  117 1    
   109   55   56 2    
   110   55   57 1    
   111   57   58 1    
   112   57   59 1    
   113   57  118 1    
   114   58  119 1    
   115   58  120 1    
   116   58  121 1    
   117   59   60 am   BACKBONE|DICT|INTERRES
   118   59  122 1    
   119   60   61 2    
   120   60   62 1    
   121   62   63 1    
   122   62   64 1    
   123   62  123 1    
   124   63  124 1    
   125   63  125 1    
   126   63  126 1    
   127   64   65 am   BACKBONE|DICT|INTERRES
   128   64  127 1    
   129   65   66 2    
@<TRIPOS>SUBSTRUCTURE
     1 UNK         1 GROUP             0       ****    0 ROOT    
