@<TRIPOS>MOLECULE
3R135
127   129    1
SMALL
USER_CHARGES


@<TRIPOS>ATOM
      1 CA        -84.0034   24.4454  -74.4574 C.3       0 UNK        -0.1998 
      2 C         -83.0383   25.6044  -74.2633 C.2       0 UNK         0.4909 
      3 O         -82.8313   26.3889  -75.1899 O.2       0 UNK        -0.5240 
      4 N         -82.4350   25.7110  -73.0706 N.am      1 UNK        -0.4739 
      5 CA        -81.4390   26.7267  -72.7032 C.3       1 UNK         0.0864 
      6 C6        -81.0426   26.6142  -71.2042 C.3       11 UNK        -0.0881 
      7 S7        -80.8511   28.1947  -70.2976 S.3       11 UNK        -0.2682 
      8 C8        -79.8236   29.2815  -71.3566 C.3       11 UNK         0.0289 
      9 C9        -78.4019   28.8058  -71.6682 C.ar      11 UNK        -0.0687 
     10 C10       -77.8087   27.7048  -71.0366 C.ar      11 UNK        -0.0823 
     11 C11       -76.5347   27.2698  -71.4083 C.ar      11 UNK        -0.0830 
     12 C12       -75.8224   27.9712  -72.3831 C.ar      11 UNK        -0.1021 
     13 C13       -76.3867   29.0856  -73.0058 C.ar      11 UNK        -0.0753 
     14 C14       -77.6730   29.4968  -72.6435 C.ar      11 UNK        -0.0933 
     15 C15       -75.6132   29.8254  -74.0852 C.3       11 UNK         0.0166 
     16 S16       -74.7682   31.2792  -73.3991 S.3       11 UNK        -0.2615 
     17 C17       -73.7751   31.8291  -74.8332 C.3       11 UNK        -0.0865 
     18 CA        -72.2831   32.0857  -74.4914 C.3       10 UNK         0.0862 
     19 C         -72.0989   33.3527  -73.6019 C.2       10 UNK         0.5551 
     20 N         -71.6164   33.2385  -72.3702 N.am      10 UNK        -0.7319 
     21 O         -72.3895   34.4607  -74.0468 O.2       10 UNK        -0.5018 
     22 N         -71.6189   30.8627  -74.0110 N.am      10 UNK        -0.4509 
     23 C         -70.2967   30.6765  -73.9285 C.2       10 UNK         0.4899 
     24 O         -69.4633   31.5127  -74.2782 O.2       10 UNK        -0.4839 
     25 CA        -69.8108   29.3262  -73.3720 C.3       9 UNK         0.0222 
     26 CB        -70.1052   29.1944  -71.8635 C.3       9 UNK        -0.1966 
     27 N         -70.2913   28.1642  -74.1331 N.am      9 UNK        -0.4218 
     28 C         -71.5441   27.7028  -74.2490 C.2       9 UNK         0.5020 
     29 O         -72.5174   28.1775  -73.6600 O.2       9 UNK        -0.5274 
     30 CA        -71.7319   26.4822  -75.1650 C.3       8 UNK         0.0270 
     31 CB        -71.7055   25.1872  -74.3382 C.3       8 UNK        -0.1976 
     32 N         -72.9820   26.5484  -75.9261 N.am      8 UNK        -0.4313 
     33 C         -73.2639   27.4759  -76.8532 C.2       8 UNK         0.5041 
     34 O         -72.4711   28.3579  -77.1906 O.2       8 UNK        -0.5577 
     35 CA        -74.6598   27.4207  -77.5114 C.3       7 UNK         0.0284 
     36 CB        -74.6770   28.0510  -78.9196 C.3       7 UNK        -0.1958 
     37 N         -75.2694   26.0857  -77.5436 N.am      7 UNK        -0.4454 
     38 C         -74.7936   24.9661  -78.1078 C.2       7 UNK         0.5089 
     39 O         -73.7188   24.8930  -78.7057 O.2       7 UNK        -0.5125 
     40 CA        -75.6850   23.7167  -77.9473 C.3       6 UNK         0.0408 
     41 CB        -74.9824   22.4113  -78.3756 C.3       6 UNK        -0.1791 
     42 N         -76.2425   23.5933  -76.5925 N.am      6 UNK        -0.4762 
     43 C         -75.5626   23.4705  -75.4411 C.2       6 UNK         0.5007 
     44 O         -74.3347   23.4123  -75.3849 O.2       6 UNK        -0.5032 
     45 CA        -76.3655   23.4387  -74.1214 C.3       5 UNK         0.0783 
     46 C46       -76.0190   24.6698  -73.2521 C.3       11 UNK        -0.0857 
     47 S47       -76.6522   24.5162  -71.5490 S.3       11 UNK        -0.2512 
     48 C48       -75.9486   26.0132  -70.7854 C.3       11 UNK         0.0225 
     49 N         -77.8135   23.3262  -74.3344 N.am      5 UNK        -0.4615 
     50 C         -78.4536   22.1916  -74.6442 C.2       4 UNK         0.5053 
     51 O         -77.8966   21.1009  -74.7673 O.2       4 UNK        -0.5105 
     52 CA        -79.9657   22.3022  -74.8878 C.3       4 UNK         0.0263 
     53 CB        -80.7375   22.3383  -73.5581 C.3       4 UNK        -0.1981 
     54 N         -80.2885   23.4873  -75.6855 N.am      4 UNK        -0.4224 
     55 C         -80.1797   23.5492  -77.0212 C.2       3 UNK         0.4895 
     56 O         -79.8458   22.5948  -77.7231 O.2       3 UNK        -0.5091 
     57 CA        -80.4822   24.8980  -77.6980 C.3       3 UNK         0.0250 
     58 CB        -81.9308   24.9331  -78.2107 C.3       3 UNK        -0.1996 
     59 N         -80.2432   26.0455  -76.8195 N.am      3 UNK        -0.4254 
     60 C         -79.0206   26.4979  -76.5031 C.2       2 UNK         0.5004 
     61 O         -77.9807   26.0199  -76.9506 O.2       2 UNK        -0.5226 
     62 CA        -78.9254   27.6417  -75.4809 C.3       2 UNK         0.0269 
     63 CB        -78.9053   29.0007  -76.1971 C.3       2 UNK        -0.1926 
     64 N         -79.9978   27.6237  -74.4834 N.am      2 UNK        -0.4687 
     65 C         -80.2122   26.6123  -73.6307 C.2       1 UNK         0.5165 
     66 O         -79.5301   25.5845  -73.6091 O.2       1 UNK        -0.5079 
     67 H67       -84.9751   24.8174  -74.7810 H         1 UNK         0.0900 
     68 H68       -83.6259   23.7672  -75.2221 H         1 UNK         0.0900 
     69 H69       -84.1476   23.8762  -73.5393 H         1 UNK         0.0900 
     70 H70       -82.6368   25.0240  -72.3585 H         1 UNK         0.2959 
     71 H71       -81.9188   27.6936  -72.8671 H         1 UNK         0.1079 
     72 H72       -80.1523   25.9989  -71.0609 H         1 UNK         0.0837 
     73 H73       -81.8228   26.0800  -70.6594 H         1 UNK         0.0837 
     74 H74       -79.7468   30.2472  -70.8552 H         1 UNK         0.0685 
     75 H75       -80.3579   29.4731  -72.2872 H         1 UNK         0.0685 
     76 H76       -78.3376   27.1547  -70.2731 H         1 UNK         0.1434 
     77 H77       -74.8349   27.6381  -72.6713 H         1 UNK         0.1329 
     78 H78       -78.1123   30.3551  -73.1330 H         1 UNK         0.1335 
     79 H79       -76.2879   30.1404  -74.8823 H         1 UNK         0.0680 
     80 H80       -74.8800   29.1601  -74.5433 H         1 UNK         0.0680 
     81 H81       -74.2343   32.7276  -75.2499 H         1 UNK         0.1032 
     82 H82       -73.8338   31.0815  -75.6261 H         1 UNK         0.1032 
     83 H83       -71.7937   32.3355  -75.4349 H         1 UNK         0.0461 
     84 H84       -71.4966   34.0640  -71.8049 H         1 UNK         0.3453 
     85 H85       -71.3861   32.3310  -72.0000 H         1 UNK         0.3453 
     86 H86       -72.2239   30.0964  -73.7275 H         1 UNK         0.2984 
     87 H87       -68.7254   29.3153  -73.4855 H         1 UNK         0.0554 
     88 H88       -69.6512   30.0154  -71.3071 H         1 UNK         0.0847 
     89 H89       -69.6972   28.2674  -71.4609 H         1 UNK         0.0847 
     90 H90       -71.1734   29.2102  -71.6456 H         1 UNK         0.0847 
     91 H91       -69.5781   27.6993  -74.6786 H         1 UNK         0.3141 
     92 H92       -70.9109   26.4511  -75.8845 H         1 UNK         0.0743 
     93 H93       -70.7775   25.1021  -73.7712 H         1 UNK         0.0784 
     94 H94       -71.7736   24.3069  -74.9777 H         1 UNK         0.0784 
     95 H95       -72.5282   25.1484  -73.6235 H         1 UNK         0.0784 
     96 H96       -73.6742   25.8411  -75.7246 H         1 UNK         0.3213 
     97 H97       -75.3082   28.0261  -76.8764 H         1 UNK         0.0855 
     98 H98       -74.0072   27.5274  -79.6026 H         1 UNK         0.0814 
     99 H99       -74.3601   29.0941  -78.8883 H         1 UNK         0.0814 
    100 H100      -75.6782   28.0323  -79.3501 H         1 UNK         0.0814 
    101 H101      -76.2093   26.0248  -77.1499 H         1 UNK         0.3105 
    102 H102      -76.5374   23.8647  -78.6121 H         1 UNK         0.0547 
    103 H103      -75.6428   21.5513  -78.2658 H         1 UNK         0.0837 
    104 H104      -74.0834   22.2219  -77.7884 H         1 UNK         0.0837 
    105 H105      -74.6811   22.4565  -79.4227 H         1 UNK         0.0837 
    106 H106      -77.2460   23.6960  -76.5262 H         1 UNK         0.3020 
    107 H107      -76.0283   22.5459  -73.5896 H         1 UNK         0.1245 
    108 H108      -76.4283   25.5742  -73.7058 H         1 UNK         0.0781 
    109 H109      -74.9391   24.8148  -73.1858 H         1 UNK         0.0781 
    110 H110      -74.8619   26.0000  -70.8851 H         1 UNK         0.0836 
    111 H111      -76.1583   26.0004  -69.7148 H         1 UNK         0.0836 
    112 H112      -78.3588   24.1692  -74.1716 H         1 UNK         0.3022 
    113 H113      -80.2837   21.4111  -75.4339 H         1 UNK         0.0747 
    114 H114      -81.8138   22.3677  -73.7257 H         1 UNK         0.0793 
    115 H115      -80.5280   21.4469  -72.9653 H         1 UNK         0.0793 
    116 H116      -80.4674   23.2013  -72.9492 H         1 UNK         0.0793 
    117 H117      -80.4900   24.3362  -75.1741 H         1 UNK         0.3047 
    118 H118      -79.8186   24.9855  -78.5614 H         1 UNK         0.0822 
    119 H119      -82.1447   25.8661  -78.7323 H         1 UNK         0.0807 
    120 H120      -82.6522   24.8293  -77.4002 H         1 UNK         0.0807 
    121 H121      -82.1142   24.1199  -78.9143 H         1 UNK         0.0807 
    122 H122      -81.0551   26.4640  -76.3770 H         1 UNK         0.2946 
    123 H123      -77.9803   27.5167  -74.9474 H         1 UNK         0.1144 
    124 H124      -78.7721   29.8219  -75.4935 H         1 UNK         0.0793 
    125 H125      -79.8287   29.1794  -76.7494 H         1 UNK         0.0793 
    126 H126      -78.0825   29.0516  -76.9119 H         1 UNK         0.0793 
    127 H127      -80.6348   28.4070  -74.4894 H         1 UNK         0.2896 
@<TRIPOS>BOND
     1    1    2 1    
     2    1   67 1    
     3    1   68 1    
     4    1   69 1    
     5    2    3 2    
     6    2    4 am   BACKBONE|DICT|INTERRES
     7    4    5 1    
     8    4   70 1    
     9    5    6 1    
    10    5   65 1    
    11    5   71 1    
    12    6    7 1    
    13    6   72 1    
    14    6   73 1    
    15    7    8 1    
    16    8    9 1    
    17    8   74 1    
    18    8   75 1    
    19    9   10 ar   
    20    9   14 ar   
    21   10   11 ar   
    22   10   76 1    
    23   11   12 ar   
    24   11   48 1    
    25   12   13 ar   
    26   12   77 1    
    27   13   14 ar   
    28   13   15 1    
    29   14   78 1    
    30   15   16 1    
    31   15   79 1    
    32   15   80 1    
    33   16   17 1    
    34   17   18 1    
    35   17   81 1    
    36   17   82 1    
    37   18   19 1    
    38   18   22 1    
    39   18   83 1    
    40   19   20 am   BACKBONE|DICT|INTERRES
    41   19   21 2    
    42   20   84 1    
    43   20   85 1    
    44   22   23 am   BACKBONE|DICT|INTERRES
    45   22   86 1    
    46   23   24 2    
    47   23   25 1    
    48   25   26 1    
    49   25   27 1    
    50   25   87 1    
    51   26   88 1    
    52   26   89 1    
    53   26   90 1    
    54   27   28 am   BACKBONE|DICT|INTERRES
    55   27   91 1    
    56   28   29 2    
    57   28   30 1    
    58   30   31 1    
    59   30   32 1    
    60   30   92 1    
    61   31   93 1    
    62   31   94 1    
    63   31   95 1    
    64   32   33 am   BACKBONE|DICT|INTERRES
    65   32   96 1    
    66   33   34 2    
    67   33   35 1    
    68   35   36 1    
    69   35   37 1    
    70   35   97 1    
    71   36   98 1    
    72   36   99 1    
    73   36  100 1    
    74   37   38 am   BACKBONE|DICT|INTERRES
    75   37  101 1    
    76   38   39 2    
    77   38   40 1    
    78   40   41 1    
    79   40   42 1    
    80   40  102 1    
    81   41  103 1    
    82   41  104 1    
    83   41  105 1    
    84   42   43 am   BACKBONE|DICT|INTERRES
    85   42  106 1    
    86   43   44 2    
    87   43   45 1    
    88   45   46 1    
    89   45   49 1    
    90   45  107 1    
    91   46   47 1    
    92   46  108 1    
    93   46  109 1    
    94   47   48 1    
    95   48  110 1    
    96   48  111 1    
    97   49   50 am   BACKBONE|DICT|INTERRES
    98   49  112 1    
    99   50   51 2    
   100   50   52 1    
   101   52   53 1    
   102   52   54 1    
   103   52  113 1    
   104   53  114 1    
   105   53  115 1    
   106   53  116 1    
   107   54   55 am   BACKBONE|DICT|INTERRES
   108   54  117 1    
   109   55   56 2    
   110   55   57 1    
   111   57   58 1    
   112   57   59 1    
   113   57  118 1    
   114   58  119 1    
   115   58  120 1    
   116   58  121 1    
   117   59   60 am   BACKBONE|DICT|INTERRES
   118   59  122 1    
   119   60   61 2    
   120   60   62 1    
   121   62   63 1    
   122   62   64 1    
   123   62  123 1    
   124   63  124 1    
   125   63  125 1    
   126   63  126 1    
   127   64   65 am   BACKBONE|DICT|INTERRES
   128   64  127 1    
   129   65   66 2    
@<TRIPOS>SUBSTRUCTURE
     1 UNK         1 GROUP             0       ****    0 ROOT    
