@<TRIPOS>MOLECULE
3R135
127   129    1
SMALL
USER_CHARGES


@<TRIPOS>ATOM
      1 CA        -75.5067   22.0338  -73.7590 C.3       0 UNK        -0.1998 
      2 C         -76.7041   22.3050  -72.8619 C.2       0 UNK         0.4909 
      3 O         -77.0141   21.4946  -71.9877 O.2       0 UNK        -0.5240 
      4 N         -77.3653   23.4480  -73.0681 N.am      1 UNK        -0.4739 
      5 CA        -78.5613   23.8721  -72.3341 C.3       1 UNK         0.0864 
      6 C6        -78.5179   25.4020  -72.0903 C.3       11 UNK        -0.0881 
      7 S7        -79.5532   25.9532  -70.6888 S.3       11 UNK        -0.2682 
      8 C8        -78.6156   27.3923  -70.0706 C.3       11 UNK         0.0289 
      9 C9        -78.1988   28.3599  -71.1742 C.ar      11 UNK        -0.0687 
     10 C10       -79.1242   28.8082  -72.1233 C.ar      11 UNK        -0.0823 
     11 C11       -78.7265   29.6582  -73.1583 C.ar      11 UNK        -0.0830 
     12 C12       -77.3961   30.0810  -73.2267 C.ar      11 UNK        -0.1021 
     13 C13       -76.4667   29.6613  -72.2706 C.ar      11 UNK        -0.0753 
     14 C14       -76.8734   28.7994  -71.2485 C.ar      11 UNK        -0.0933 
     15 C15       -75.0239   30.1347  -72.3509 C.3       11 UNK         0.0166 
     16 S16       -74.9091   31.9221  -72.0306 S.3       11 UNK        -0.2615 
     17 C17       -73.1073   32.2012  -71.9942 C.3       11 UNK        -0.0865 
     18 CA        -72.5287   32.5149  -73.4093 C.3       10 UNK         0.0862 
     19 C         -71.1911   33.3236  -73.3917 C.2       10 UNK         0.5551 
     20 N         -71.0536   34.3112  -72.5164 N.am      10 UNK        -0.7319 
     21 O         -70.2933   33.1134  -74.2060 O.2       10 UNK        -0.5018 
     22 N         -72.4798   31.3112  -74.2605 N.am      10 UNK        -0.4509 
     23 C         -71.6810   30.2503  -74.0763 C.2       10 UNK         0.4899 
     24 O         -70.8917   30.1362  -73.1368 O.2       10 UNK        -0.4839 
     25 CA        -71.7846   29.1408  -75.1365 C.3       9 UNK         0.0222 
     26 CB        -70.3971   28.6328  -75.5784 C.3       9 UNK        -0.1966 
     27 N         -72.6446   28.0278  -74.7198 N.am      9 UNK        -0.4218 
     28 C         -72.4745   27.1632  -73.7056 C.2       9 UNK         0.5020 
     29 O         -71.5654   27.2133  -72.8774 O.2       9 UNK        -0.5274 
     30 CA        -73.4681   25.9888  -73.6391 C.3       8 UNK         0.0270 
     31 CB        -74.7799   26.3978  -72.9551 C.3       8 UNK        -0.1976 
     32 N         -73.7513   25.4237  -74.9610 N.am      8 UNK        -0.4313 
     33 C         -72.8533   24.7597  -75.7057 C.2       8 UNK         0.5041 
     34 O         -71.7272   24.4512  -75.3142 O.2       8 UNK        -0.5577 
     35 CA        -73.2737   24.3905  -77.1366 C.3       7 UNK         0.0284 
     36 CB        -74.0143   23.0457  -77.1560 C.3       7 UNK        -0.1958 
     37 N         -74.1080   25.4300  -77.7433 N.am      7 UNK        -0.4454 
     38 C         -73.6321   26.5913  -78.2163 C.2       7 UNK         0.5089 
     39 O         -72.4353   26.8732  -78.2673 O.2       7 UNK        -0.5125 
     40 CA        -74.6656   27.6226  -78.7021 C.3       6 UNK         0.0408 
     41 CB        -74.9227   27.4568  -80.2080 C.3       6 UNK        -0.1791 
     42 N         -75.9394   27.5543  -77.9800 N.am      6 UNK        -0.4762 
     43 C         -76.1037   27.8750  -76.6873 C.2       6 UNK         0.5007 
     44 O         -75.1898   28.2646  -75.9609 O.2       6 UNK        -0.5032 
     45 CA        -77.5168   27.6855  -76.1028 C.3       5 UNK         0.0783 
     46 C46       -78.3806   28.9394  -76.3774 C.3       11 UNK        -0.0857 
     47 S47       -79.9807   28.8748  -75.5048 S.3       11 UNK        -0.2512 
     48 C48       -79.7384   30.1192  -74.1968 C.3       11 UNK         0.0225 
     49 N         -78.1524   26.4668  -76.6148 N.am      5 UNK        -0.4615 
     50 C         -77.7250   25.2167  -76.4080 C.2       4 UNK         0.5053 
     51 O         -76.7599   24.9336  -75.6915 O.2       4 UNK        -0.5105 
     52 CA        -78.5059   24.1188  -77.1519 C.3       4 UNK         0.0263 
     53 CB        -77.9232   22.7095  -76.9433 C.3       4 UNK        -0.1981 
     54 N         -79.9198   24.1165  -76.7704 N.am      4 UNK        -0.4224 
     55 C         -80.8707   24.8765  -77.3350 C.2       3 UNK         0.4895 
     56 O         -80.6272   25.7242  -78.1951 O.2       3 UNK        -0.5091 
     57 CA        -82.3324   24.6610  -76.8969 C.3       3 UNK         0.0250 
     58 CB        -83.0932   23.8550  -77.9626 C.3       3 UNK        -0.1996 
     59 N         -82.4535   23.9762  -75.6085 N.am      3 UNK        -0.4254 
     60 C         -82.3504   24.5850  -74.4208 C.2       2 UNK         0.5004 
     61 O         -82.2317   25.8032  -74.2852 O.2       2 UNK        -0.5226 
     62 CA        -82.3293   23.6943  -73.1630 C.3       2 UNK         0.0269 
     63 CB        -82.7659   22.2292  -73.3990 C.3       2 UNK        -0.1926 
     64 N         -81.0067   23.7606  -72.5304 N.am      2 UNK        -0.4687 
     65 C         -79.8340   23.4405  -73.0964 C.2       1 UNK         0.5165 
     66 O         -79.7465   22.8693  -74.1865 O.2       1 UNK        -0.5079 
     67 H67       -75.1210   22.9566  -74.1900 H         1 UNK         0.0900 
     68 H68       -75.7856   21.3612  -74.5695 H         1 UNK         0.0900 
     69 H69       -74.7017   21.5705  -73.1893 H         1 UNK         0.0900 
     70 H70       -77.1135   24.0247  -73.8644 H         1 UNK         0.2959 
     71 H71       -78.5791   23.3685  -71.3649 H         1 UNK         0.1079 
     72 H72       -78.7905   25.9591  -72.9898 H         1 UNK         0.0837 
     73 H73       -77.4955   25.6988  -71.8566 H         1 UNK         0.0837 
     74 H74       -79.2262   27.9266  -69.3419 H         1 UNK         0.0685 
     75 H75       -77.7412   27.0240  -69.5317 H         1 UNK         0.0685 
     76 H76       -80.1516   28.4737  -72.0715 H         1 UNK         0.1434 
     77 H77       -77.0789   30.7466  -74.0176 H         1 UNK         0.1329 
     78 H78       -76.1546   28.4654  -70.5130 H         1 UNK         0.1335 
     79 H79       -74.3955   29.5949  -71.6407 H         1 UNK         0.0680 
     80 H80       -74.6379   29.9101  -73.3452 H         1 UNK         0.0680 
     81 H81       -72.6029   31.3520  -71.5315 H         1 UNK         0.1032 
     82 H82       -72.9564   33.0327  -71.3060 H         1 UNK         0.1032 
     83 H83       -73.2262   33.1857  -73.9123 H         1 UNK         0.0461 
     84 H84       -70.2005   34.8485  -72.5206 H         1 UNK         0.3453 
     85 H85       -71.7872   34.5464  -71.8672 H         1 UNK         0.3453 
     86 H86       -73.0748   31.3337  -75.0758 H         1 UNK         0.2984 
     87 H87       -72.2623   29.5663  -76.0206 H         1 UNK         0.0554 
     88 H88       -70.4829   27.8960  -76.3774 H         1 UNK         0.0847 
     89 H89       -69.8487   28.1718  -74.7564 H         1 UNK         0.0847 
     90 H90       -69.7854   29.4533  -75.9553 H         1 UNK         0.0847 
     91 H91       -73.4976   27.9300  -75.2673 H         1 UNK         0.3141 
     92 H92       -73.0092   25.2034  -73.0345 H         1 UNK         0.0743 
     93 H93       -75.3235   27.1522  -73.5231 H         1 UNK         0.0784 
     94 H94       -75.4314   25.5351  -72.8312 H         1 UNK         0.0784 
     95 H95       -74.5908   26.8073  -71.9622 H         1 UNK         0.0784 
     96 H96       -74.6749   25.5852  -75.3435 H         1 UNK         0.3213 
     97 H97       -72.3654   24.2831  -77.7341 H         1 UNK         0.0855 
     98 H98       -74.9113   23.0757  -76.5407 H         1 UNK         0.0814 
     99 H99       -73.3807   22.2483  -76.7651 H         1 UNK         0.0814 
    100 H100      -74.3047   22.7630  -78.1678 H         1 UNK         0.0814 
    101 H101      -75.1069   25.2875  -77.7303 H         1 UNK         0.3105 
    102 H102      -74.2405   28.6151  -78.5373 H         1 UNK         0.0547 
    103 H103      -73.9916   27.5292  -80.7721 H         1 UNK         0.0837 
    104 H104      -75.3685   26.4887  -80.4399 H         1 UNK         0.0837 
    105 H105      -75.5878   28.2334  -80.5858 H         1 UNK         0.0837 
    106 H106      -76.7456   27.2438  -78.5034 H         1 UNK         0.3020 
    107 H107      -77.4020   27.5721  -75.0220 H         1 UNK         0.1245 
    108 H108      -77.8517   29.8501  -76.0921 H         1 UNK         0.0781 
    109 H109      -78.5834   29.0388  -77.4455 H         1 UNK         0.0781 
    110 H110      -79.4328   31.0675  -74.6417 H         1 UNK         0.0836 
    111 H111      -80.6972   30.3094  -73.7120 H         1 UNK         0.0836 
    112 H112      -78.9830   26.5933  -77.1827 H         1 UNK         0.3022 
    113 H113      -78.4307   24.3384  -78.2191 H         1 UNK         0.0747 
    114 H114      -78.5570   21.9471  -77.3963 H         1 UNK         0.0793 
    115 H115      -76.9446   22.6236  -77.4119 H         1 UNK         0.0793 
    116 H116      -77.8085   22.4615  -75.8886 H         1 UNK         0.0793 
    117 H117      -80.1585   23.5190  -75.9838 H         1 UNK         0.3047 
    118 H118      -82.7979   25.6465  -76.8218 H         1 UNK         0.0822 
    119 H119      -84.1463   23.7473  -77.7020 H         1 UNK         0.0807 
    120 H120      -82.6741   22.8561  -78.0908 H         1 UNK         0.0807 
    121 H121      -83.0510   24.3527  -78.9326 H         1 UNK         0.0807 
    122 H122      -82.5307   22.9693  -75.6289 H         1 UNK         0.2946 
    123 H123      -83.0376   24.1418  -72.4637 H         1 UNK         0.1144 
    124 H124      -83.7685   22.1829  -73.8263 H         1 UNK         0.0793 
    125 H125      -82.7973   21.6793  -72.4583 H         1 UNK         0.0793 
    126 H126      -82.0949   21.6895  -74.0676 H         1 UNK         0.0793 
    127 H127      -80.9689   24.2795  -71.6616 H         1 UNK         0.2896 
@<TRIPOS>BOND
     1    1    2 1    
     2    1   67 1    
     3    1   68 1    
     4    1   69 1    
     5    2    3 2    
     6    2    4 am   BACKBONE|DICT|INTERRES
     7    4    5 1    
     8    4   70 1    
     9    5    6 1    
    10    5   65 1    
    11    5   71 1    
    12    6    7 1    
    13    6   72 1    
    14    6   73 1    
    15    7    8 1    
    16    8    9 1    
    17    8   74 1    
    18    8   75 1    
    19    9   10 ar   
    20    9   14 ar   
    21   10   11 ar   
    22   10   76 1    
    23   11   12 ar   
    24   11   48 1    
    25   12   13 ar   
    26   12   77 1    
    27   13   14 ar   
    28   13   15 1    
    29   14   78 1    
    30   15   16 1    
    31   15   79 1    
    32   15   80 1    
    33   16   17 1    
    34   17   18 1    
    35   17   81 1    
    36   17   82 1    
    37   18   19 1    
    38   18   22 1    
    39   18   83 1    
    40   19   20 am   BACKBONE|DICT|INTERRES
    41   19   21 2    
    42   20   84 1    
    43   20   85 1    
    44   22   23 am   BACKBONE|DICT|INTERRES
    45   22   86 1    
    46   23   24 2    
    47   23   25 1    
    48   25   26 1    
    49   25   27 1    
    50   25   87 1    
    51   26   88 1    
    52   26   89 1    
    53   26   90 1    
    54   27   28 am   BACKBONE|DICT|INTERRES
    55   27   91 1    
    56   28   29 2    
    57   28   30 1    
    58   30   31 1    
    59   30   32 1    
    60   30   92 1    
    61   31   93 1    
    62   31   94 1    
    63   31   95 1    
    64   32   33 am   BACKBONE|DICT|INTERRES
    65   32   96 1    
    66   33   34 2    
    67   33   35 1    
    68   35   36 1    
    69   35   37 1    
    70   35   97 1    
    71   36   98 1    
    72   36   99 1    
    73   36  100 1    
    74   37   38 am   BACKBONE|DICT|INTERRES
    75   37  101 1    
    76   38   39 2    
    77   38   40 1    
    78   40   41 1    
    79   40   42 1    
    80   40  102 1    
    81   41  103 1    
    82   41  104 1    
    83   41  105 1    
    84   42   43 am   BACKBONE|DICT|INTERRES
    85   42  106 1    
    86   43   44 2    
    87   43   45 1    
    88   45   46 1    
    89   45   49 1    
    90   45  107 1    
    91   46   47 1    
    92   46  108 1    
    93   46  109 1    
    94   47   48 1    
    95   48  110 1    
    96   48  111 1    
    97   49   50 am   BACKBONE|DICT|INTERRES
    98   49  112 1    
    99   50   51 2    
   100   50   52 1    
   101   52   53 1    
   102   52   54 1    
   103   52  113 1    
   104   53  114 1    
   105   53  115 1    
   106   53  116 1    
   107   54   55 am   BACKBONE|DICT|INTERRES
   108   54  117 1    
   109   55   56 2    
   110   55   57 1    
   111   57   58 1    
   112   57   59 1    
   113   57  118 1    
   114   58  119 1    
   115   58  120 1    
   116   58  121 1    
   117   59   60 am   BACKBONE|DICT|INTERRES
   118   59  122 1    
   119   60   61 2    
   120   60   62 1    
   121   62   63 1    
   122   62   64 1    
   123   62  123 1    
   124   63  124 1    
   125   63  125 1    
   126   63  126 1    
   127   64   65 am   BACKBONE|DICT|INTERRES
   128   64  127 1    
   129   65   66 2    
@<TRIPOS>SUBSTRUCTURE
     1 UNK         1 GROUP             0       ****    0 ROOT    
