@<TRIPOS>MOLECULE
3R135
127   129    1
SMALL
USER_CHARGES


@<TRIPOS>ATOM
      1 CA        -82.5263   24.9990  -68.2712 C.3       0 UNK        -0.1998 
      2 C         -82.6086   25.8036  -69.5596 C.2       0 UNK         0.4909 
      3 O         -83.6538   26.3844  -69.8534 O.2       0 UNK        -0.5240 
      4 N         -81.5138   25.8424  -70.3307 N.am      1 UNK        -0.4739 
      5 CA        -81.4074   26.5774  -71.5998 C.3       1 UNK         0.0864 
      6 C6        -79.9343   26.7458  -72.0505 C.3       11 UNK        -0.0881 
      7 S7        -78.8809   27.5503  -70.7963 S.3       11 UNK        -0.2682 
      8 C8        -78.9407   29.2962  -71.3112 C.3       11 UNK         0.0289 
      9 C9        -78.1872   29.5513  -72.6099 C.ar      11 UNK        -0.0687 
     10 C10       -78.8859   29.8382  -73.7871 C.ar      11 UNK        -0.0823 
     11 C11       -78.1976   30.0953  -74.9769 C.ar      11 UNK        -0.0830 
     12 C12       -76.8022   30.0997  -74.9745 C.ar      11 UNK        -0.1021 
     13 C13       -76.0940   29.7625  -73.8204 C.ar      11 UNK        -0.0753 
     14 C14       -76.7897   29.5008  -72.6359 C.ar      11 UNK        -0.0933 
     15 C15       -74.5860   29.6038  -73.8908 C.3       11 UNK         0.0166 
     16 S16       -73.6899   31.0287  -73.2032 S.3       11 UNK        -0.2615 
     17 C17       -73.3103   30.4561  -71.5094 C.3       11 UNK        -0.0865 
     18 CA        -71.8542   29.9103  -71.3744 C.3       10 UNK         0.0862 
     19 C         -71.4050   29.6542  -69.9006 C.2       10 UNK         0.5551 
     20 N         -71.8336   30.4723  -68.9478 N.am      10 UNK        -0.7319 
     21 O         -70.6194   28.7527  -69.6115 O.2       10 UNK        -0.5018 
     22 N         -71.5982   28.7680  -72.2704 N.am      10 UNK        -0.4509 
     23 C         -72.1483   27.5497  -72.1916 C.2       10 UNK         0.4899 
     24 O         -72.9716   27.2198  -71.3361 O.2       10 UNK        -0.4839 
     25 CA        -71.7464   26.5525  -73.2956 C.3       9 UNK         0.0222 
     26 CB        -72.3846   25.1634  -73.1043 C.3       9 UNK        -0.1966 
     27 N         -72.0857   27.0433  -74.6347 N.am      9 UNK        -0.4218 
     28 C         -71.3746   27.9286  -75.3484 C.2       9 UNK         0.5020 
     29 O         -70.3759   28.5075  -74.9145 O.2       9 UNK        -0.5274 
     30 CA        -71.8644   28.1889  -76.7878 C.3       8 UNK         0.0270 
     31 CB        -70.8364   28.9402  -77.6600 C.3       8 UNK        -0.1976 
     32 N         -72.3196   26.9519  -77.4345 N.am      8 UNK        -0.4313 
     33 C         -71.5953   25.8541  -77.7039 C.2       8 UNK         0.5041 
     34 O         -70.3714   25.7830  -77.5872 O.2       8 UNK        -0.5577 
     35 CA        -72.3728   24.5982  -78.1330 C.3       7 UNK         0.0284 
     36 CB        -72.5822   23.6696  -76.9246 C.3       7 UNK        -0.1958 
     37 N         -73.6771   24.9070  -78.7218 N.am      7 UNK        -0.4454 
     38 C         -73.8719   25.2517  -80.0012 C.2       7 UNK         0.5089 
     39 O         -72.9727   25.3251  -80.8390 O.2       7 UNK        -0.5125 
     40 CA        -75.3206   25.5651  -80.4155 C.3       6 UNK         0.0408 
     41 CB        -76.0182   24.2957  -80.9295 C.3       6 UNK        -0.1791 
     42 N         -76.1144   26.1501  -79.3299 N.am      6 UNK        -0.4762 
     43 C         -75.9538   27.3973  -78.8637 C.2       6 UNK         0.5007 
     44 O         -75.1200   28.1904  -79.3009 O.2       6 UNK        -0.5032 
     45 CA        -76.8616   27.8190  -77.6934 C.3       5 UNK         0.0783 
     46 C46       -78.2104   28.3675  -78.2336 C.3       11 UNK        -0.0857 
     47 S47       -79.4908   28.7285  -76.9810 S.3       11 UNK        -0.2512 
     48 C48       -78.9643   30.3215  -76.2700 C.3       11 UNK         0.0225 
     49 N         -77.0095   26.7697  -76.6765 N.am      5 UNK        -0.4615 
     50 C         -76.0115   26.2497  -75.9487 C.2       4 UNK         0.5053 
     51 O         -74.8263   26.5480  -76.1057 O.2       4 UNK        -0.5105 
     52 CA        -76.3593   25.2098  -74.8692 C.3       4 UNK         0.0263 
     53 CB        -76.5502   25.9028  -73.5063 C.3       4 UNK        -0.1981 
     54 N         -77.4809   24.3079  -75.1850 N.am      4 UNK        -0.4224 
     55 C         -78.7847   24.5982  -75.3012 C.2       3 UNK         0.4895 
     56 O         -79.2370   25.7385  -75.2114 O.2       3 UNK        -0.5091 
     57 CA        -79.7594   23.4376  -75.5571 C.3       3 UNK         0.0250 
     58 CB        -79.1328   22.0312  -75.4506 C.3       3 UNK        -0.1996 
     59 N         -80.8456   23.5637  -74.5912 N.am      3 UNK        -0.4254 
     60 C         -82.1552   23.4833  -74.8523 C.2       2 UNK         0.5004 
     61 O         -82.6228   23.1768  -75.9497 O.2       2 UNK        -0.5226 
     62 CA        -83.1092   23.8019  -73.6844 C.3       2 UNK         0.0269 
     63 CB        -83.6465   22.5048  -73.0576 C.3       2 UNK        -0.1926 
     64 N         -82.4747   24.6125  -72.6376 N.am      2 UNK        -0.4687 
     65 C         -82.2269   25.9282  -72.7369 C.2       1 UNK         0.5165 
     66 O         -82.6019   26.6199  -73.6841 O.2       1 UNK        -0.5079 
     67 H67       -82.7229   25.6427  -67.4142 H         1 UNK         0.0900 
     68 H68       -81.5448   24.5452  -68.1357 H         1 UNK         0.0900 
     69 H69       -83.2704   24.2030  -68.2777 H         1 UNK         0.0900 
     70 H70       -80.6707   25.3774  -70.0240 H         1 UNK         0.2959 
     71 H71       -81.8269   27.5737  -71.4426 H         1 UNK         0.1079 
     72 H72       -79.4917   25.7728  -72.2711 H         1 UNK         0.0837 
     73 H73       -79.8787   27.3099  -72.9833 H         1 UNK         0.0837 
     74 H74       -79.9821   29.6107  -71.3956 H         1 UNK         0.0685 
     75 H75       -78.5019   29.9077  -70.5216 H         1 UNK         0.0685 
     76 H76       -79.9674   29.8431  -73.7848 H         1 UNK         0.1434 
     77 H77       -76.2629   30.3263  -75.8822 H         1 UNK         0.1329 
     78 H78       -76.2495   29.2382  -71.7376 H         1 UNK         0.1335 
     79 H79       -74.3097   28.6840  -73.3816 H         1 UNK         0.0680 
     80 H80       -74.2730   29.4704  -74.9267 H         1 UNK         0.0680 
     81 H81       -74.0352   29.7087  -71.1861 H         1 UNK         0.1032 
     82 H82       -73.4640   31.3178  -70.8594 H         1 UNK         0.1032 
     83 H83       -71.1812   30.6929  -71.7261 H         1 UNK         0.0461 
     84 H84       -72.4452   31.2461  -69.1517 H         1 UNK         0.3453 
     85 H85       -71.5244   30.3182  -68.0006 H         1 UNK         0.3453 
     86 H86       -70.9492   28.9353  -73.0325 H         1 UNK         0.2984 
     87 H87       -70.6633   26.4266  -73.2343 H         1 UNK         0.0554 
     88 H88       -72.1361   24.7506  -72.1257 H         1 UNK         0.0847 
     89 H89       -72.0251   24.4555  -73.8510 H         1 UNK         0.0847 
     90 H90       -73.4719   25.2035  -73.1742 H         1 UNK         0.0847 
     91 H91       -72.9302   26.6729  -75.0556 H         1 UNK         0.3141 
     92 H92       -72.7457   28.8254  -76.7010 H         1 UNK         0.0743 
     93 H93       -70.6104   29.9198  -77.2372 H         1 UNK         0.0784 
     94 H94       -69.8942   28.3971  -77.7386 H         1 UNK         0.0784 
     95 H95       -71.2166   29.1020  -78.6686 H         1 UNK         0.0784 
     96 H96       -73.3270   26.8610  -77.5040 H         1 UNK         0.3213 
     97 H97       -71.7646   24.0685  -78.8699 H         1 UNK         0.0855 
     98 H98       -71.6283   23.4054  -76.4657 H         1 UNK         0.0814 
     99 H99       -73.0667   22.7384  -77.2188 H         1 UNK         0.0814 
    100 H100      -73.1947   24.1387  -76.1539 H         1 UNK         0.0814 
    101 H101      -74.4763   24.8880  -78.1057 H         1 UNK         0.3105 
    102 H102      -75.2812   26.2850  -81.2359 H         1 UNK         0.0547 
    103 H103      -75.4605   23.8526  -81.7559 H         1 UNK         0.0837 
    104 H104      -76.1046   23.5358  -80.1518 H         1 UNK         0.0837 
    105 H105      -77.0200   24.5147  -81.2991 H         1 UNK         0.0837 
    106 H106      -76.8266   25.5684  -78.9114 H         1 UNK         0.3020 
    107 H107      -76.3370   28.6393  -77.2105 H         1 UNK         0.1245 
    108 H108      -78.6566   27.6456  -78.9206 H         1 UNK         0.0781 
    109 H109      -78.0415   29.2696  -78.8249 H         1 UNK         0.0781 
    110 H110      -79.8486   30.9274  -76.0673 H         1 UNK         0.0836 
    111 H111      -78.3678   30.8838  -76.9899 H         1 UNK         0.0836 
    112 H112      -77.9593   26.5312  -76.4035 H         1 UNK         0.3022 
    113 H113      -75.4867   24.5609  -74.7810 H         1 UNK         0.0747 
    114 H114      -75.6533   26.4522  -73.2174 H         1 UNK         0.0793 
    115 H115      -77.3673   26.6244  -73.5301 H         1 UNK         0.0793 
    116 H116      -76.7587   25.1832  -72.7149 H         1 UNK         0.0793 
    117 H117      -77.2208   23.3385  -75.3039 H         1 UNK         0.3047 
    118 H118      -80.1440   23.5734  -76.5702 H         1 UNK         0.0822 
    119 H119      -78.3540   21.8824  -76.1997 H         1 UNK         0.0807 
    120 H120      -79.8835   21.2594  -75.6222 H         1 UNK         0.0807 
    121 H121      -78.6980   21.8498  -74.4666 H         1 UNK         0.0807 
    122 H122      -80.5732   23.8712  -73.6694 H         1 UNK         0.2946 
    123 H123      -83.9527   24.3610  -74.0966 H         1 UNK         0.1144 
    124 H124      -84.3707   22.7150  -72.2703 H         1 UNK         0.0793 
    125 H125      -82.8464   21.9011  -72.6273 H         1 UNK         0.0793 
    126 H126      -84.1517   21.8911  -73.8049 H         1 UNK         0.0793 
    127 H127      -82.1619   24.1299  -71.8073 H         1 UNK         0.2896 
@<TRIPOS>BOND
     1    1    2 1    
     2    1   67 1    
     3    1   68 1    
     4    1   69 1    
     5    2    3 2    
     6    2    4 am   BACKBONE|DICT|INTERRES
     7    4    5 1    
     8    4   70 1    
     9    5    6 1    
    10    5   65 1    
    11    5   71 1    
    12    6    7 1    
    13    6   72 1    
    14    6   73 1    
    15    7    8 1    
    16    8    9 1    
    17    8   74 1    
    18    8   75 1    
    19    9   10 ar   
    20    9   14 ar   
    21   10   11 ar   
    22   10   76 1    
    23   11   12 ar   
    24   11   48 1    
    25   12   13 ar   
    26   12   77 1    
    27   13   14 ar   
    28   13   15 1    
    29   14   78 1    
    30   15   16 1    
    31   15   79 1    
    32   15   80 1    
    33   16   17 1    
    34   17   18 1    
    35   17   81 1    
    36   17   82 1    
    37   18   19 1    
    38   18   22 1    
    39   18   83 1    
    40   19   20 am   BACKBONE|DICT|INTERRES
    41   19   21 2    
    42   20   84 1    
    43   20   85 1    
    44   22   23 am   BACKBONE|DICT|INTERRES
    45   22   86 1    
    46   23   24 2    
    47   23   25 1    
    48   25   26 1    
    49   25   27 1    
    50   25   87 1    
    51   26   88 1    
    52   26   89 1    
    53   26   90 1    
    54   27   28 am   BACKBONE|DICT|INTERRES
    55   27   91 1    
    56   28   29 2    
    57   28   30 1    
    58   30   31 1    
    59   30   32 1    
    60   30   92 1    
    61   31   93 1    
    62   31   94 1    
    63   31   95 1    
    64   32   33 am   BACKBONE|DICT|INTERRES
    65   32   96 1    
    66   33   34 2    
    67   33   35 1    
    68   35   36 1    
    69   35   37 1    
    70   35   97 1    
    71   36   98 1    
    72   36   99 1    
    73   36  100 1    
    74   37   38 am   BACKBONE|DICT|INTERRES
    75   37  101 1    
    76   38   39 2    
    77   38   40 1    
    78   40   41 1    
    79   40   42 1    
    80   40  102 1    
    81   41  103 1    
    82   41  104 1    
    83   41  105 1    
    84   42   43 am   BACKBONE|DICT|INTERRES
    85   42  106 1    
    86   43   44 2    
    87   43   45 1    
    88   45   46 1    
    89   45   49 1    
    90   45  107 1    
    91   46   47 1    
    92   46  108 1    
    93   46  109 1    
    94   47   48 1    
    95   48  110 1    
    96   48  111 1    
    97   49   50 am   BACKBONE|DICT|INTERRES
    98   49  112 1    
    99   50   51 2    
   100   50   52 1    
   101   52   53 1    
   102   52   54 1    
   103   52  113 1    
   104   53  114 1    
   105   53  115 1    
   106   53  116 1    
   107   54   55 am   BACKBONE|DICT|INTERRES
   108   54  117 1    
   109   55   56 2    
   110   55   57 1    
   111   57   58 1    
   112   57   59 1    
   113   57  118 1    
   114   58  119 1    
   115   58  120 1    
   116   58  121 1    
   117   59   60 am   BACKBONE|DICT|INTERRES
   118   59  122 1    
   119   60   61 2    
   120   60   62 1    
   121   62   63 1    
   122   62   64 1    
   123   62  123 1    
   124   63  124 1    
   125   63  125 1    
   126   63  126 1    
   127   64   65 am   BACKBONE|DICT|INTERRES
   128   64  127 1    
   129   65   66 2    
@<TRIPOS>SUBSTRUCTURE
     1 UNK         1 GROUP             0       ****    0 ROOT    
