@<TRIPOS>MOLECULE
3R135
127   129    1
SMALL
USER_CHARGES


@<TRIPOS>ATOM
      1 CA        -82.9718   27.1524  -73.7402 C.3       0 UNK        -0.1998 
      2 C         -81.9848   27.7394  -74.7376 C.2       0 UNK         0.4909 
      3 O         -82.3694   28.0751  -75.8583 O.2       0 UNK        -0.5240 
      4 N         -80.7101   27.8579  -74.3448 N.am      1 UNK        -0.4739 
      5 CA        -79.6187   28.3855  -75.1709 C.3       1 UNK         0.0864 
      6 C6        -78.4608   28.9525  -74.3146 C.3       11 UNK        -0.0881 
      7 S7        -78.9765   30.3895  -73.3086 S.3       11 UNK        -0.2682 
      8 C8        -79.2813   29.6538  -71.6666 C.3       11 UNK         0.0289 
      9 C9        -78.0335   28.9928  -71.1020 C.ar      11 UNK        -0.0687 
     10 C10       -77.9383   27.6001  -71.0406 C.ar      11 UNK        -0.0823 
     11 C11       -76.7704   26.9904  -70.5782 C.ar      11 UNK        -0.0830 
     12 C12       -75.6970   27.7899  -70.1701 C.ar      11 UNK        -0.1021 
     13 C13       -75.7712   29.1856  -70.2310 C.ar      11 UNK        -0.0753 
     14 C14       -76.9614   29.7782  -70.6723 C.ar      11 UNK        -0.0933 
     15 C15       -74.5344   29.9900  -69.8211 C.3       11 UNK         0.0166 
     16 S16       -74.5636   31.7893  -70.1473 S.3       11 UNK        -0.2615 
     17 C17       -74.6872   31.8959  -71.9721 C.3       11 UNK        -0.0865 
     18 CA        -73.3350   31.9717  -72.7356 C.3       10 UNK         0.0862 
     19 C         -72.4369   33.1833  -72.3531 C.2       10 UNK         0.5551 
     20 N         -71.1177   33.0373  -72.2927 N.am      10 UNK        -0.7319 
     21 O         -72.9378   34.2841  -72.1366 O.2       10 UNK        -0.5018 
     22 N         -72.6317   30.6793  -72.7615 N.am      10 UNK        -0.4509 
     23 C         -72.9541   29.6655  -73.5712 C.2       10 UNK         0.4899 
     24 O         -73.9032   29.6893  -74.3594 O.2       10 UNK        -0.4839 
     25 CA        -72.0872   28.4013  -73.4594 C.3       9 UNK         0.0222 
     26 CB        -72.5412   27.5345  -72.2733 C.3       9 UNK        -0.1966 
     27 N         -72.1896   27.6214  -74.6935 N.am      9 UNK        -0.4218 
     28 C         -71.4152   27.7995  -75.7722 C.2       9 UNK         0.5020 
     29 O         -70.4374   28.5486  -75.8033 O.2       9 UNK        -0.5274 
     30 CA        -71.8063   27.0190  -77.0361 C.3       8 UNK         0.0270 
     31 CB        -71.2323   25.5931  -76.9976 C.3       8 UNK        -0.1976 
     32 N         -73.2597   26.9615  -77.2079 N.am      8 UNK        -0.4313 
     33 C         -73.9977   27.9407  -77.7540 C.2       8 UNK         0.5041 
     34 O         -73.5097   28.9820  -78.1980 O.2       8 UNK        -0.5577 
     35 CA        -75.5307   27.7457  -77.8137 C.3       7 UNK         0.0284 
     36 CB        -76.1607   28.3560  -79.0834 C.3       7 UNK        -0.1958 
     37 N         -75.9750   26.3592  -77.6314 N.am      7 UNK        -0.4454 
     38 C         -75.6763   25.2875  -78.3808 C.2       7 UNK         0.5089 
     39 O         -75.0425   25.3450  -79.4352 O.2       7 UNK        -0.5125 
     40 CA        -76.1323   23.9159  -77.8340 C.3       6 UNK         0.0408 
     41 CB        -75.2299   22.7681  -78.3308 C.3       6 UNK        -0.1791 
     42 N         -76.2608   23.8411  -76.3686 N.am      6 UNK        -0.4762 
     43 C         -75.3322   24.1640  -75.4505 C.2       6 UNK         0.5007 
     44 O         -74.2460   24.6692  -75.7396 O.2       6 UNK        -0.5032 
     45 CA        -75.6415   23.8985  -73.9624 C.3       5 UNK         0.0783 
     46 C46       -75.5657   25.1971  -73.1227 C.3       11 UNK        -0.0857 
     47 S47       -75.2159   24.8119  -71.3740 S.3       11 UNK        -0.2512 
     48 C48       -76.6800   25.4698  -70.5139 C.3       11 UNK         0.0225 
     49 N         -76.9182   23.2035  -73.7657 N.am      5 UNK        -0.4615 
     50 C         -77.0527   21.8728  -73.7126 C.2       4 UNK         0.5053 
     51 O         -76.1109   21.0840  -73.7954 O.2       4 UNK        -0.5105 
     52 CA        -78.4809   21.3196  -73.5489 C.3       4 UNK         0.0263 
     53 CB        -78.8031   21.1178  -72.0591 C.3       4 UNK        -0.1981 
     54 N         -79.5401   22.1305  -74.1656 N.am      4 UNK        -0.4224 
     55 C         -79.6165   22.4588  -75.4642 C.2       3 UNK         0.4895 
     56 O         -78.7348   22.1830  -76.2776 O.2       3 UNK        -0.5091 
     57 CA        -80.8765   23.2131  -75.9392 C.3       3 UNK         0.0250 
     58 CB        -81.9032   23.4986  -74.8224 C.3       3 UNK        -0.1996 
     59 N         -80.5143   24.4797  -76.5724 N.am      3 UNK        -0.4254 
     60 C         -80.0858   24.6467  -77.8312 C.2       2 UNK         0.5004 
     61 O         -80.0224   23.7373  -78.6591 O.2       2 UNK        -0.5226 
     62 CA        -79.6758   26.0731  -78.2560 C.3       2 UNK         0.0269 
     63 CB        -80.4168   26.5074  -79.5325 C.3       2 UNK        -0.1926 
     64 N         -79.8907   27.0934  -77.2238 N.am      2 UNK        -0.4687 
     65 C         -79.1392   27.2826  -76.1323 C.2       1 UNK         0.5165 
     66 O         -78.1633   26.5856  -75.8457 O.2       1 UNK        -0.5079 
     67 H67       -82.4809   26.8223  -72.8250 H         1 UNK         0.0900 
     68 H68       -83.7212   27.8973  -73.4743 H         1 UNK         0.0900 
     69 H69       -83.4842   26.2963  -74.1779 H         1 UNK         0.0900 
     70 H70       -80.4458   27.5505  -73.4213 H         1 UNK         0.2959 
     71 H71       -80.0025   29.2071  -75.7809 H         1 UNK         0.1079 
     72 H72       -77.6501   29.2932  -74.9618 H         1 UNK         0.0837 
     73 H73       -78.0224   28.1773  -73.6871 H         1 UNK         0.0837 
     74 H74       -80.1060   28.9435  -71.7322 H         1 UNK         0.0685 
     75 H75       -79.6115   30.4394  -70.9854 H         1 UNK         0.0685 
     76 H76       -78.7695   26.9904  -71.3664 H         1 UNK         0.1434 
     77 H77       -74.7892   27.3187  -69.8182 H         1 UNK         0.1329 
     78 H78       -77.0578   30.8530  -70.7220 H         1 UNK         0.1335 
     79 H79       -73.6577   29.5738  -70.3154 H         1 UNK         0.0680 
     80 H80       -74.3766   29.8479  -68.7513 H         1 UNK         0.0680 
     81 H81       -75.2791   32.7832  -72.2027 H         1 UNK         0.1032 
     82 H82       -75.2750   31.0623  -72.3561 H         1 UNK         0.1032 
     83 H83       -73.5915   32.1950  -73.7733 H         1 UNK         0.0461 
     84 H84       -70.5517   33.8359  -72.0513 H         1 UNK         0.3453 
     85 H85       -70.6728   32.1685  -72.5383 H         1 UNK         0.3453 
     86 H86       -71.8647   30.5818  -72.1121 H         1 UNK         0.2984 
     87 H87       -71.0464   28.6911  -73.2995 H         1 UNK         0.0554 
     88 H88       -72.0991   26.5384  -72.3065 H         1 UNK         0.0847 
     89 H89       -73.6249   27.4220  -72.2445 H         1 UNK         0.0847 
     90 H90       -72.2396   27.9842  -71.3276 H         1 UNK         0.0847 
     91 H91       -72.9984   27.0248  -74.7856 H         1 UNK         0.3141 
     92 H92       -71.3698   27.5315  -77.8963 H         1 UNK         0.0743 
     93 H93       -70.1438   25.6145  -76.9298 H         1 UNK         0.0784 
     94 H94       -71.4909   25.0378  -77.8996 H         1 UNK         0.0784 
     95 H95       -71.6002   25.0281  -76.1404 H         1 UNK         0.0784 
     96 H96       -73.7276   26.1317  -76.8500 H         1 UNK         0.3213 
     97 H97       -75.9250   28.2953  -76.9575 H         1 UNK         0.0855 
     98 H98       -75.7713   27.8931  -79.9905 H         1 UNK         0.0814 
     99 H99       -75.9526   29.4245  -79.1501 H         1 UNK         0.0814 
    100 H100      -77.2444   28.2397  -79.0842 H         1 UNK         0.0814 
    101 H101      -76.5533   26.2038  -76.8084 H         1 UNK         0.3105 
    102 H102      -77.1320   23.7467  -78.2351 H         1 UNK         0.0547 
    103 H103      -75.5791   21.8032  -77.9630 H         1 UNK         0.0837 
    104 H104      -74.1974   22.8987  -78.0046 H         1 UNK         0.0837 
    105 H105      -75.2241   22.7127  -79.4200 H         1 UNK         0.0837 
    106 H106      -77.1203   23.4082  -76.0456 H         1 UNK         0.3020 
    107 H107      -74.8281   23.2470  -73.6331 H         1 UNK         0.1245 
    108 H108      -76.4804   25.7850  -73.2197 H         1 UNK         0.0781 
    109 H109      -74.7583   25.8441  -73.4663 H         1 UNK         0.0781 
    110 H110      -77.5730   25.0012  -70.9305 H         1 UNK         0.0836 
    111 H111      -76.6354   25.1677  -69.4668 H         1 UNK         0.0836 
    112 H112      -77.7431   23.7797  -73.6919 H         1 UNK         0.3022 
    113 H113      -78.5015   20.3424  -74.0360 H         1 UNK         0.0747 
    114 H114      -79.7634   20.6202  -71.9227 H         1 UNK         0.0793 
    115 H115      -78.0479   20.4950  -71.5769 H         1 UNK         0.0793 
    116 H116      -78.8345   22.0659  -71.5204 H         1 UNK         0.0793 
    117 H117      -80.3061   22.3971  -73.5641 H         1 UNK         0.3047 
    118 H118      -81.3607   22.5759  -76.6824 H         1 UNK         0.0822 
    119 H119      -82.7870   23.9924  -75.2272 H         1 UNK         0.0807 
    120 H120      -81.4974   24.1437  -74.0417 H         1 UNK         0.0807 
    121 H121      -82.2507   22.5764  -74.3542 H         1 UNK         0.0807 
    122 H122      -80.5079   25.2943  -75.9779 H         1 UNK         0.2946 
    123 H123      -78.6104   26.0357  -78.4848 H         1 UNK         0.1144 
    124 H124      -80.0842   27.4894  -79.8694 H         1 UNK         0.0793 
    125 H125      -81.4953   26.5525  -79.3756 H         1 UNK         0.0793 
    126 H126      -80.2347   25.8103  -80.3516 H         1 UNK         0.0793 
    127 H127      -80.7358   27.6468  -77.3090 H         1 UNK         0.2896 
@<TRIPOS>BOND
     1    1    2 1    
     2    1   67 1    
     3    1   68 1    
     4    1   69 1    
     5    2    3 2    
     6    2    4 am   BACKBONE|DICT|INTERRES
     7    4    5 1    
     8    4   70 1    
     9    5    6 1    
    10    5   65 1    
    11    5   71 1    
    12    6    7 1    
    13    6   72 1    
    14    6   73 1    
    15    7    8 1    
    16    8    9 1    
    17    8   74 1    
    18    8   75 1    
    19    9   10 ar   
    20    9   14 ar   
    21   10   11 ar   
    22   10   76 1    
    23   11   12 ar   
    24   11   48 1    
    25   12   13 ar   
    26   12   77 1    
    27   13   14 ar   
    28   13   15 1    
    29   14   78 1    
    30   15   16 1    
    31   15   79 1    
    32   15   80 1    
    33   16   17 1    
    34   17   18 1    
    35   17   81 1    
    36   17   82 1    
    37   18   19 1    
    38   18   22 1    
    39   18   83 1    
    40   19   20 am   BACKBONE|DICT|INTERRES
    41   19   21 2    
    42   20   84 1    
    43   20   85 1    
    44   22   23 am   BACKBONE|DICT|INTERRES
    45   22   86 1    
    46   23   24 2    
    47   23   25 1    
    48   25   26 1    
    49   25   27 1    
    50   25   87 1    
    51   26   88 1    
    52   26   89 1    
    53   26   90 1    
    54   27   28 am   BACKBONE|DICT|INTERRES
    55   27   91 1    
    56   28   29 2    
    57   28   30 1    
    58   30   31 1    
    59   30   32 1    
    60   30   92 1    
    61   31   93 1    
    62   31   94 1    
    63   31   95 1    
    64   32   33 am   BACKBONE|DICT|INTERRES
    65   32   96 1    
    66   33   34 2    
    67   33   35 1    
    68   35   36 1    
    69   35   37 1    
    70   35   97 1    
    71   36   98 1    
    72   36   99 1    
    73   36  100 1    
    74   37   38 am   BACKBONE|DICT|INTERRES
    75   37  101 1    
    76   38   39 2    
    77   38   40 1    
    78   40   41 1    
    79   40   42 1    
    80   40  102 1    
    81   41  103 1    
    82   41  104 1    
    83   41  105 1    
    84   42   43 am   BACKBONE|DICT|INTERRES
    85   42  106 1    
    86   43   44 2    
    87   43   45 1    
    88   45   46 1    
    89   45   49 1    
    90   45  107 1    
    91   46   47 1    
    92   46  108 1    
    93   46  109 1    
    94   47   48 1    
    95   48  110 1    
    96   48  111 1    
    97   49   50 am   BACKBONE|DICT|INTERRES
    98   49  112 1    
    99   50   51 2    
   100   50   52 1    
   101   52   53 1    
   102   52   54 1    
   103   52  113 1    
   104   53  114 1    
   105   53  115 1    
   106   53  116 1    
   107   54   55 am   BACKBONE|DICT|INTERRES
   108   54  117 1    
   109   55   56 2    
   110   55   57 1    
   111   57   58 1    
   112   57   59 1    
   113   57  118 1    
   114   58  119 1    
   115   58  120 1    
   116   58  121 1    
   117   59   60 am   BACKBONE|DICT|INTERRES
   118   59  122 1    
   119   60   61 2    
   120   60   62 1    
   121   62   63 1    
   122   62   64 1    
   123   62  123 1    
   124   63  124 1    
   125   63  125 1    
   126   63  126 1    
   127   64   65 am   BACKBONE|DICT|INTERRES
   128   64  127 1    
   129   65   66 2    
@<TRIPOS>SUBSTRUCTURE
     1 UNK         1 GROUP             0       ****    0 ROOT    
