@<TRIPOS>MOLECULE
3R135
127   129    1
SMALL
USER_CHARGES


@<TRIPOS>ATOM
      1 CA        -83.0997   29.5118  -70.0312 C.3       0 UNK        -0.1998 
      2 C         -82.3930   28.8547  -71.2076 C.2       0 UNK         0.4909 
      3 O         -82.2606   29.4730  -72.2646 O.2       0 UNK        -0.5240 
      4 N         -81.9317   27.6110  -71.0281 N.am      1 UNK        -0.4739 
      5 CA        -81.2598   26.8112  -72.0580 C.3       1 UNK         0.0864 
      6 C6        -80.4795   25.6150  -71.4456 C.3       11 UNK        -0.0881 
      7 S7        -79.2832   26.0688  -70.1386 S.3       11 UNK        -0.2682 
      8 C8        -77.6690   25.9041  -70.9734 C.3       11 UNK         0.0289 
      9 C9        -77.1932   27.2414  -71.5186 C.ar      11 UNK        -0.0687 
     10 C10       -77.7105   27.7328  -72.7178 C.ar      11 UNK        -0.0823 
     11 C11       -77.3282   28.9902  -73.2054 C.ar      11 UNK        -0.0830 
     12 C12       -76.3749   29.7277  -72.4961 C.ar      11 UNK        -0.1021 
     13 C13       -75.8316   29.2376  -71.3050 C.ar      11 UNK        -0.0753 
     14 C14       -76.2516   27.9977  -70.8157 C.ar      11 UNK        -0.0933 
     15 C15       -74.8073   30.0551  -70.5347 C.3       11 UNK         0.0166 
     16 S16       -73.1175   29.5304  -70.9542 S.3       11 UNK        -0.2615 
     17 C17       -72.3403   31.1080  -71.4397 C.3       11 UNK        -0.0865 
     18 CA        -72.5572   31.4766  -72.9318 C.3       10 UNK         0.0862 
     19 C         -71.9215   32.8650  -73.2382 C.2       10 UNK         0.5551 
     20 N         -70.8616   32.9520  -74.0328 N.am      10 UNK        -0.7319 
     21 O         -72.4021   33.8808  -72.7418 O.2       10 UNK        -0.5018 
     22 N         -72.1510   30.3851  -73.8344 N.am      10 UNK        -0.4509 
     23 C         -72.4401   30.3023  -75.1381 C.2       10 UNK         0.4899 
     24 O         -73.0886   31.1503  -75.7512 O.2       10 UNK        -0.4839 
     25 CA        -71.9341   29.0594  -75.8916 C.3       9 UNK         0.0222 
     26 CB        -70.4134   29.1195  -76.1375 C.3       9 UNK        -0.1966 
     27 N         -72.3490   27.7887  -75.2819 N.am      9 UNK        -0.4218 
     28 C         -71.9673   27.2526  -74.1123 C.2       9 UNK         0.5020 
     29 O         -71.1268   27.7574  -73.3661 O.2       9 UNK        -0.5274 
     30 CA        -72.6459   25.9392  -73.6881 C.3       8 UNK         0.0270 
     31 CB        -73.9381   26.2284  -72.9077 C.3       8 UNK        -0.1976 
     32 N         -72.9502   25.0415  -74.8039 N.am      8 UNK        -0.4313 
     33 C         -72.0351   24.3691  -75.5163 C.2       8 UNK         0.5041 
     34 O         -70.8198   24.4681  -75.3434 O.2       8 UNK        -0.5577 
     35 CA        -72.5654   23.4128  -76.5947 C.3       7 UNK         0.0284 
     36 CB        -73.0880   22.1122  -75.9609 C.3       7 UNK        -0.1958 
     37 N         -73.6309   24.0370  -77.3775 N.am      7 UNK        -0.4454 
     38 C         -73.4351   24.7372  -78.5028 C.2       7 UNK         0.5089 
     39 O         -72.3380   24.8736  -79.0449 O.2       7 UNK        -0.5125 
     40 CA        -74.6707   25.4059  -79.1353 C.3       6 UNK         0.0408 
     41 CB        -75.2649   24.5062  -80.2301 C.3       6 UNK        -0.1791 
     42 N         -75.7160   25.7424  -78.1642 N.am      6 UNK        -0.4762 
     43 C         -75.5807   26.6648  -77.1975 C.2       6 UNK         0.5007 
     44 O         -74.5650   27.3405  -77.0417 O.2       6 UNK        -0.5032 
     45 CA        -76.7482   26.8346  -76.2035 C.3       5 UNK         0.0783 
     46 C46       -77.6854   27.9572  -76.7107 C.3       11 UNK        -0.0857 
     47 S47       -78.9321   28.4872  -75.4955 S.3       11 UNK        -0.2512 
     48 C48       -77.9639   29.6238  -74.4443 C.3       11 UNK         0.0225 
     49 N         -77.4502   25.5703  -75.9316 N.am      5 UNK        -0.4615 
     50 C         -76.8520   24.4560  -75.4744 C.2       4 UNK         0.5053 
     51 O         -75.6665   24.4183  -75.1453 O.2       4 UNK        -0.5105 
     52 CA        -77.6578   23.1443  -75.4215 C.3       4 UNK         0.0263 
     53 CB        -78.0340   22.8109  -73.9697 C.3       4 UNK        -0.1981 
     54 N         -78.8674   23.1292  -76.2457 N.am      4 UNK        -0.4224 
     55 C         -78.9368   23.3309  -77.5708 C.2       3 UNK         0.4895 
     56 O         -77.9510   23.4748  -78.2950 O.2       3 UNK        -0.5091 
     57 CA        -80.3512   23.4637  -78.1753 C.3       3 UNK         0.0250 
     58 CB        -80.7793   22.1421  -78.8326 C.3       3 UNK        -0.1996 
     59 N         -81.3809   23.8841  -77.2099 N.am      3 UNK        -0.4254 
     60 C         -81.3380   25.0126  -76.4844 C.2       2 UNK         0.5004 
     61 O         -80.4341   25.8417  -76.5986 O.2       2 UNK        -0.5226 
     62 CA        -82.4026   25.2180  -75.3922 C.3       2 UNK         0.0269 
     63 CB        -83.0935   23.8985  -74.9646 C.3       2 UNK        -0.1926 
     64 N         -81.7192   25.8543  -74.2634 N.am      2 UNK        -0.4687 
     65 C         -82.2585   26.2967  -73.1216 C.2       1 UNK         0.5165 
     66 O         -83.4673   26.2586  -72.8753 O.2       1 UNK        -0.5079 
     67 H67       -83.1313   28.8595  -69.1586 H         1 UNK         0.0900 
     68 H68       -82.5847   30.4298  -69.7493 H         1 UNK         0.0900 
     69 H69       -84.1241   29.7645  -70.3030 H         1 UNK         0.0900 
     70 H70       -82.0738   27.1476  -70.1422 H         1 UNK         0.2959 
     71 H71       -80.5557   27.4699  -72.5682 H         1 UNK         0.1079 
     72 H72       -79.9570   25.0614  -72.2256 H         1 UNK         0.0837 
     73 H73       -81.1790   24.9024  -71.0035 H         1 UNK         0.0837 
     74 H74       -76.9464   25.5196  -70.2520 H         1 UNK         0.0685 
     75 H75       -77.7136   25.1634  -71.7725 H         1 UNK         0.0685 
     76 H76       -78.4338   27.1326  -73.2465 H         1 UNK         0.1434 
     77 H77       -76.0674   30.6980  -72.8619 H         1 UNK         0.1329 
     78 H78       -75.8436   27.6232  -69.8869 H         1 UNK         0.1335 
     79 H79       -74.9449   31.1168  -70.7441 H         1 UNK         0.0680 
     80 H80       -74.9614   29.9343  -69.4614 H         1 UNK         0.0680 
     81 H81       -72.7093   31.8998  -70.7845 H         1 UNK         0.1032 
     82 H82       -71.2722   31.0260  -71.2297 H         1 UNK         0.1032 
     83 H83       -73.6310   31.6070  -73.0777 H         1 UNK         0.0461 
     84 H84       -70.4646   32.1220  -74.4424 H         1 UNK         0.3453 
     85 H85       -70.4592   33.8556  -74.2261 H         1 UNK         0.3453 
     86 H86       -71.6514   29.6067  -73.4127 H         1 UNK         0.2984 
     87 H87       -72.4140   29.0740  -76.8714 H         1 UNK         0.0554 
     88 H88       -69.8432   29.1332  -75.2085 H         1 UNK         0.0847 
     89 H89       -70.1465   30.0196  -76.6927 H         1 UNK         0.0847 
     90 H90       -70.0750   28.2653  -76.7240 H         1 UNK         0.0847 
     91 H91       -73.0872   27.3176  -75.7986 H         1 UNK         0.3141 
     92 H92       -71.9590   25.4155  -73.0199 H         1 UNK         0.0743 
     93 H93       -74.6547   26.7956  -73.5022 H         1 UNK         0.0784 
     94 H94       -74.4263   25.3088  -72.5842 H         1 UNK         0.0784 
     95 H95       -73.7270   26.8122  -72.0119 H         1 UNK         0.0784 
     96 H96       -73.9371   24.8563  -74.9794 H         1 UNK         0.3213 
     97 H97       -71.7322   23.1522  -77.2515 H         1 UNK         0.0855 
     98 H98       -73.9271   22.2920  -75.2876 H         1 UNK         0.0814 
     99 H99       -72.3054   21.6211  -75.3811 H         1 UNK         0.0814 
    100 H100      -73.4169   21.4058  -76.7231 H         1 UNK         0.0814 
    101 H101      -74.5602   24.0191  -76.9779 H         1 UNK         0.3105 
    102 H102      -74.3380   26.3350  -79.6029 H         1 UNK         0.0547 
    103 H103      -74.5199   24.2755  -80.9927 H         1 UNK         0.0837 
    104 H104      -75.6202   23.5581  -79.8244 H         1 UNK         0.0837 
    105 H105      -76.1025   24.9904  -80.7322 H         1 UNK         0.0837 
    106 H106      -76.5695   25.1956  -78.2060 H         1 UNK         0.3020 
    107 H107      -76.3022   27.1610  -75.2625 H         1 UNK         0.1245 
    108 H108      -78.2162   27.6258  -77.6055 H         1 UNK         0.0781 
    109 H109      -77.1164   28.8390  -77.0133 H         1 UNK         0.0781 
    110 H110      -78.6370   30.4120  -74.1042 H         1 UNK         0.0836 
    111 H111      -77.1981   30.1181  -75.0439 H         1 UNK         0.0836 
    112 H112      -78.4329   25.5462  -76.1848 H         1 UNK         0.3022 
    113 H113      -77.0015   22.3558  -75.7953 H         1 UNK         0.0747 
    114 H114      -78.4894   21.8233  -73.8941 H         1 UNK         0.0793 
    115 H115      -77.1526   22.8078  -73.3263 H         1 UNK         0.0793 
    116 H116      -78.7353   23.5368  -73.5594 H         1 UNK         0.0793 
    117 H117      -79.7395   23.0134  -75.7520 H         1 UNK         0.3047 
    118 H118      -80.2960   24.2314  -78.9500 H         1 UNK         0.0822 
    119 H119      -81.7329   22.2462  -79.3506 H         1 UNK         0.0807 
    120 H120      -80.8789   21.3397  -78.1005 H         1 UNK         0.0807 
    121 H121      -80.0455   21.8187  -79.5726 H         1 UNK         0.0807 
    122 H122      -82.1459   23.2427  -77.0566 H         1 UNK         0.2946 
    123 H123      -83.1499   25.9109  -75.7840 H         1 UNK         0.1144 
    124 H124      -83.8400   24.0635  -74.1886 H         1 UNK         0.0793 
    125 H125      -82.3769   23.1719  -74.5794 H         1 UNK         0.0793 
    126 H126      -83.6258   23.4372  -75.7970 H         1 UNK         0.0793 
    127 H127      -80.7335   26.0058  -74.4380 H         1 UNK         0.2896 
@<TRIPOS>BOND
     1    1    2 1    
     2    1   67 1    
     3    1   68 1    
     4    1   69 1    
     5    2    3 2    
     6    2    4 am   BACKBONE|DICT|INTERRES
     7    4    5 1    
     8    4   70 1    
     9    5    6 1    
    10    5   65 1    
    11    5   71 1    
    12    6    7 1    
    13    6   72 1    
    14    6   73 1    
    15    7    8 1    
    16    8    9 1    
    17    8   74 1    
    18    8   75 1    
    19    9   10 ar   
    20    9   14 ar   
    21   10   11 ar   
    22   10   76 1    
    23   11   12 ar   
    24   11   48 1    
    25   12   13 ar   
    26   12   77 1    
    27   13   14 ar   
    28   13   15 1    
    29   14   78 1    
    30   15   16 1    
    31   15   79 1    
    32   15   80 1    
    33   16   17 1    
    34   17   18 1    
    35   17   81 1    
    36   17   82 1    
    37   18   19 1    
    38   18   22 1    
    39   18   83 1    
    40   19   20 am   BACKBONE|DICT|INTERRES
    41   19   21 2    
    42   20   84 1    
    43   20   85 1    
    44   22   23 am   BACKBONE|DICT|INTERRES
    45   22   86 1    
    46   23   24 2    
    47   23   25 1    
    48   25   26 1    
    49   25   27 1    
    50   25   87 1    
    51   26   88 1    
    52   26   89 1    
    53   26   90 1    
    54   27   28 am   BACKBONE|DICT|INTERRES
    55   27   91 1    
    56   28   29 2    
    57   28   30 1    
    58   30   31 1    
    59   30   32 1    
    60   30   92 1    
    61   31   93 1    
    62   31   94 1    
    63   31   95 1    
    64   32   33 am   BACKBONE|DICT|INTERRES
    65   32   96 1    
    66   33   34 2    
    67   33   35 1    
    68   35   36 1    
    69   35   37 1    
    70   35   97 1    
    71   36   98 1    
    72   36   99 1    
    73   36  100 1    
    74   37   38 am   BACKBONE|DICT|INTERRES
    75   37  101 1    
    76   38   39 2    
    77   38   40 1    
    78   40   41 1    
    79   40   42 1    
    80   40  102 1    
    81   41  103 1    
    82   41  104 1    
    83   41  105 1    
    84   42   43 am   BACKBONE|DICT|INTERRES
    85   42  106 1    
    86   43   44 2    
    87   43   45 1    
    88   45   46 1    
    89   45   49 1    
    90   45  107 1    
    91   46   47 1    
    92   46  108 1    
    93   46  109 1    
    94   47   48 1    
    95   48  110 1    
    96   48  111 1    
    97   49   50 am   BACKBONE|DICT|INTERRES
    98   49  112 1    
    99   50   51 2    
   100   50   52 1    
   101   52   53 1    
   102   52   54 1    
   103   52  113 1    
   104   53  114 1    
   105   53  115 1    
   106   53  116 1    
   107   54   55 am   BACKBONE|DICT|INTERRES
   108   54  117 1    
   109   55   56 2    
   110   55   57 1    
   111   57   58 1    
   112   57   59 1    
   113   57  118 1    
   114   58  119 1    
   115   58  120 1    
   116   58  121 1    
   117   59   60 am   BACKBONE|DICT|INTERRES
   118   59  122 1    
   119   60   61 2    
   120   60   62 1    
   121   62   63 1    
   122   62   64 1    
   123   62  123 1    
   124   63  124 1    
   125   63  125 1    
   126   63  126 1    
   127   64   65 am   BACKBONE|DICT|INTERRES
   128   64  127 1    
   129   65   66 2    
@<TRIPOS>SUBSTRUCTURE
     1 UNK         1 GROUP             0       ****    0 ROOT    
