@<TRIPOS>MOLECULE
3R135
127   129    1
SMALL
USER_CHARGES


@<TRIPOS>ATOM
      1 CA        -82.5291   21.4658  -73.8800 C.3       0 UNK        -0.1998 
      2 C         -81.8368   22.7292  -73.3951 C.2       0 UNK         0.4909 
      3 O         -80.9550   23.2424  -74.0884 O.2       0 UNK        -0.5240 
      4 N         -82.2473   23.2506  -72.2270 N.am      1 UNK        -0.4739 
      5 CA        -81.7221   24.4303  -71.5110 C.3       1 UNK         0.0864 
      6 C6        -80.2393   24.2275  -71.0678 C.3       11 UNK        -0.0881 
      7 S7        -79.3508   25.7006  -70.4475 S.3       11 UNK        -0.2682 
      8 C8        -78.1446   25.9349  -71.7873 C.3       11 UNK         0.0289 
      9 C9        -77.5622   27.3365  -71.7781 C.ar      11 UNK        -0.0687 
     10 C10       -78.1355   28.3257  -72.5800 C.ar      11 UNK        -0.0823 
     11 C11       -77.5628   29.5975  -72.6503 C.ar      11 UNK        -0.0830 
     12 C12       -76.4602   29.9018  -71.8497 C.ar      11 UNK        -0.1021 
     13 C13       -75.8728   28.9200  -71.0484 C.ar      11 UNK        -0.0753 
     14 C14       -76.4274   27.6355  -71.0171 C.ar      11 UNK        -0.0933 
     15 C15       -74.6251   29.2423  -70.2395 C.3       11 UNK         0.0166 
     16 S16       -73.1164   29.1458  -71.2593 S.3       11 UNK        -0.2615 
     17 C17       -73.0509   30.7938  -72.0514 C.3       11 UNK        -0.0865 
     18 CA        -73.4757   30.7980  -73.5514 C.3       10 UNK         0.0862 
     19 C         -73.5747   32.2359  -74.1447 C.2       10 UNK         0.5551 
     20 N         -73.2852   32.4445  -75.4235 N.am      10 UNK        -0.7319 
     21 O         -73.9472   33.1751  -73.4456 O.2       10 UNK        -0.5018 
     22 N         -72.7297   29.8418  -74.3837 N.am      10 UNK        -0.4509 
     23 C         -71.4118   29.8257  -74.6184 C.2       10 UNK         0.4899 
     24 O         -70.6128   30.6434  -74.1590 O.2       10 UNK        -0.4839 
     25 CA        -70.9242   28.6877  -75.5353 C.3       9 UNK         0.0222 
     26 CB        -69.3868   28.5810  -75.6248 C.3       9 UNK        -0.1966 
     27 N         -71.5378   27.4051  -75.1717 N.am      9 UNK        -0.4218 
     28 C         -71.3859   26.7162  -74.0289 C.2       9 UNK         0.5020 
     29 O         -70.5858   27.0127  -73.1408 O.2       9 UNK        -0.5274 
     30 CA        -72.2902   25.4852  -73.8295 C.3       8 UNK         0.0270 
     31 CB        -73.4270   25.8109  -72.8453 C.3       8 UNK        -0.1976 
     32 N         -72.8770   24.9846  -75.0740 N.am      8 UNK        -0.4313 
     33 C         -72.2120   24.3230  -76.0299 C.2       8 UNK         0.5041 
     34 O         -71.0216   24.0171  -75.9542 O.2       8 UNK        -0.5577 
     35 CA        -73.0088   23.9641  -77.2939 C.3       7 UNK         0.0284 
     36 CB        -73.8665   22.7086  -77.0627 C.3       7 UNK        -0.1958 
     37 N         -73.8596   25.0694  -77.7439 N.am      7 UNK        -0.4454 
     38 C         -73.4098   26.1815  -78.3422 C.2       7 UNK         0.5089 
     39 O         -72.2235   26.3948  -78.5902 O.2       7 UNK        -0.5125 
     40 CA        -74.4591   27.2419  -78.7217 C.3       6 UNK         0.0408 
     41 CB        -75.0269   26.9594  -80.1214 C.3       6 UNK        -0.1791 
     42 N         -75.5602   27.3329  -77.7598 N.am      6 UNK        -0.4762 
     43 C         -75.4381   27.8244  -76.5177 C.2       6 UNK         0.5007 
     44 O         -74.3818   28.2580  -76.0557 O.2       6 UNK        -0.5032 
     45 CA        -76.6926   27.7524  -75.6220 C.3       5 UNK         0.0783 
     46 C46       -77.6630   28.9331  -75.8943 C.3       11 UNK        -0.0857 
     47 S47       -77.1163   30.5308  -75.1985 S.3       11 UNK        -0.2512 
     48 C48       -78.0788   30.6180  -73.6500 C.3       11 UNK         0.0225 
     49 N         -77.3850   26.4567  -75.7237 N.am      5 UNK        -0.4615 
     50 C         -76.8222   25.2585  -75.4986 C.2       4 UNK         0.5053 
     51 O         -75.6510   25.1277  -75.1496 O.2       4 UNK        -0.5105 
     52 CA        -77.6588   23.9813  -75.7134 C.3       4 UNK         0.0263 
     53 CB        -77.6265   23.0810  -74.4673 C.3       4 UNK        -0.1981 
     54 N         -79.0511   24.2134  -76.1008 N.am      4 UNK        -0.4224 
     55 C         -79.4556   24.6163  -77.3141 C.2       3 UNK         0.4895 
     56 O         -78.6883   24.8525  -78.2477 O.2       3 UNK        -0.5091 
     57 CA        -80.9675   24.8288  -77.5015 C.3       3 UNK         0.0250 
     58 CB        -81.6520   23.5085  -77.8900 C.3       3 UNK        -0.1996 
     59 N         -81.6133   25.3770  -76.3054 N.am      3 UNK        -0.4254 
     60 C         -81.3789   26.5989  -75.8026 C.2       2 UNK         0.5004 
     61 O         -80.6339   27.4227  -76.3292 O.2       2 UNK        -0.5226 
     62 CA        -82.0386   26.9255  -74.4597 C.3       2 UNK         0.0269 
     63 CB        -83.5330   27.2536  -74.6409 C.3       2 UNK        -0.1926 
     64 N         -81.8471   25.7960  -73.5540 N.am      2 UNK        -0.4687 
     65 C         -82.0199   25.7724  -72.2316 C.2       1 UNK         0.5165 
     66 O         -82.4264   26.7385  -71.5840 O.2       1 UNK        -0.5079 
     67 H67       -83.0096   21.6472  -74.8409 H         1 UNK         0.0900 
     68 H68       -81.7986   20.6679  -74.0099 H         1 UNK         0.0900 
     69 H69       -83.2885   21.1207  -73.1787 H         1 UNK         0.0900 
     70 H70       -83.0089   22.7884  -71.7486 H         1 UNK         0.2959 
     71 H71       -82.3079   24.4832  -70.5915 H         1 UNK         0.1079 
     72 H72       -80.2076   23.4724  -70.2810 H         1 UNK         0.0837 
     73 H73       -79.6577   23.7985  -71.8825 H         1 UNK         0.0837 
     74 H74       -77.3490   25.1935  -71.6969 H         1 UNK         0.0685 
     75 H75       -78.6290   25.7538  -72.7484 H         1 UNK         0.0685 
     76 H76       -78.9958   28.0870  -73.1898 H         1 UNK         0.1434 
     77 H77       -76.0266   30.8910  -71.8921 H         1 UNK         0.1329 
     78 H78       -75.9714   26.8657  -70.4097 H         1 UNK         0.1335 
     79 H79       -74.7122   30.2283  -69.7811 H         1 UNK         0.0680 
     80 H80       -74.5275   28.5357  -69.4140 H         1 UNK         0.0680 
     81 H81       -73.6718   31.4817  -71.4760 H         1 UNK         0.1032 
     82 H82       -72.0332   31.1737  -71.9513 H         1 UNK         0.1032 
     83 H83       -74.4970   30.4276  -73.5977 H         1 UNK         0.0461 
     84 H84       -73.3619   33.3743  -75.8040 H         1 UNK         0.3453 
     85 H85       -72.9988   31.6776  -76.0101 H         1 UNK         0.3453 
     86 H86       -73.3066   29.1592  -74.8706 H         1 UNK         0.2984 
     87 H87       -71.2934   28.9220  -76.5349 H         1 UNK         0.0554 
     88 H88       -68.9575   29.4980  -76.0300 H         1 UNK         0.0847 
     89 H89       -69.0837   27.7640  -76.2795 H         1 UNK         0.0847 
     90 H90       -68.9309   28.4165  -74.6482 H         1 UNK         0.0847 
     91 H91       -72.2515   27.0760  -75.8078 H         1 UNK         0.3141 
     92 H92       -71.6774   24.6914  -73.3974 H         1 UNK         0.0743 
     93 H93       -73.0292   26.1222  -71.8787 H         1 UNK         0.0784 
     94 H94       -74.0592   26.6211  -73.2132 H         1 UNK         0.0784 
     95 H95       -74.0644   24.9442  -72.6695 H         1 UNK         0.0784 
     96 H96       -73.8807   25.1318  -75.1896 H         1 UNK         0.3213 
     97 H97       -72.2915   23.7416  -78.0872 H         1 UNK         0.0855 
     98 H98       -74.6014   22.8549  -76.2707 H         1 UNK         0.0814 
     99 H99       -73.2426   21.8623  -76.7720 H         1 UNK         0.0814 
    100 H100      -74.4005   22.4195  -77.9680 H         1 UNK         0.0814 
    101 H101      -74.8458   25.0015  -77.5415 H         1 UNK         0.3105 
    102 H102      -73.9546   28.2102  -78.7506 H         1 UNK         0.0547 
    103 H103      -75.7068   27.7493  -80.4408 H         1 UNK         0.0837 
    104 H104      -74.2279   26.9037  -80.8622 H         1 UNK         0.0837 
    105 H105      -75.5699   26.0139  -80.1563 H         1 UNK         0.0837 
    106 H106      -76.4593   26.9752  -78.0523 H         1 UNK         0.3020 
    107 H107      -76.3320   27.8251  -74.5940 H         1 UNK         0.1245 
    108 H108      -78.6405   28.7169  -75.4672 H         1 UNK         0.0781 
    109 H109      -77.8413   29.0575  -76.9642 H         1 UNK         0.0781 
    110 H110      -79.1390   30.4631  -73.8567 H         1 UNK         0.0836 
    111 H111      -77.9918   31.6226  -73.2332 H         1 UNK         0.0836 
    112 H112      -78.3481   26.4862  -76.0289 H         1 UNK         0.3022 
    113 H113      -77.1761   23.4330  -76.5250 H         1 UNK         0.0747 
    114 H114      -78.0934   23.5630  -73.6106 H         1 UNK         0.0793 
    115 H115      -78.1494   22.1410  -74.6447 H         1 UNK         0.0793 
    116 H116      -76.6030   22.8312  -74.1841 H         1 UNK         0.0793 
    117 H117      -79.7553   23.9905  -75.4018 H         1 UNK         0.3047 
    118 H118      -81.1041   25.5425  -78.3170 H         1 UNK         0.0822 
    119 H119      -81.2010   23.0852  -78.7887 H         1 UNK         0.0807 
    120 H120      -82.7113   23.6572  -78.1006 H         1 UNK         0.0807 
    121 H121      -81.5677   22.7610  -77.0997 H         1 UNK         0.0807 
    122 H122      -82.2500   24.7645  -75.8168 H         1 UNK         0.2946 
    123 H123      -81.5321   27.7974  -74.0398 H         1 UNK         0.1144 
    124 H124      -83.9860   27.5824  -73.7056 H         1 UNK         0.0793 
    125 H125      -84.0972   26.3922  -74.9996 H         1 UNK         0.0793 
    126 H126      -83.6699   28.0595  -75.3633 H         1 UNK         0.0793 
    127 H127      -81.4754   24.9405  -73.9626 H         1 UNK         0.2896 
@<TRIPOS>BOND
     1    1    2 1    
     2    1   67 1    
     3    1   68 1    
     4    1   69 1    
     5    2    3 2    
     6    2    4 am   BACKBONE|DICT|INTERRES
     7    4    5 1    
     8    4   70 1    
     9    5    6 1    
    10    5   65 1    
    11    5   71 1    
    12    6    7 1    
    13    6   72 1    
    14    6   73 1    
    15    7    8 1    
    16    8    9 1    
    17    8   74 1    
    18    8   75 1    
    19    9   10 ar   
    20    9   14 ar   
    21   10   11 ar   
    22   10   76 1    
    23   11   12 ar   
    24   11   48 1    
    25   12   13 ar   
    26   12   77 1    
    27   13   14 ar   
    28   13   15 1    
    29   14   78 1    
    30   15   16 1    
    31   15   79 1    
    32   15   80 1    
    33   16   17 1    
    34   17   18 1    
    35   17   81 1    
    36   17   82 1    
    37   18   19 1    
    38   18   22 1    
    39   18   83 1    
    40   19   20 am   BACKBONE|DICT|INTERRES
    41   19   21 2    
    42   20   84 1    
    43   20   85 1    
    44   22   23 am   BACKBONE|DICT|INTERRES
    45   22   86 1    
    46   23   24 2    
    47   23   25 1    
    48   25   26 1    
    49   25   27 1    
    50   25   87 1    
    51   26   88 1    
    52   26   89 1    
    53   26   90 1    
    54   27   28 am   BACKBONE|DICT|INTERRES
    55   27   91 1    
    56   28   29 2    
    57   28   30 1    
    58   30   31 1    
    59   30   32 1    
    60   30   92 1    
    61   31   93 1    
    62   31   94 1    
    63   31   95 1    
    64   32   33 am   BACKBONE|DICT|INTERRES
    65   32   96 1    
    66   33   34 2    
    67   33   35 1    
    68   35   36 1    
    69   35   37 1    
    70   35   97 1    
    71   36   98 1    
    72   36   99 1    
    73   36  100 1    
    74   37   38 am   BACKBONE|DICT|INTERRES
    75   37  101 1    
    76   38   39 2    
    77   38   40 1    
    78   40   41 1    
    79   40   42 1    
    80   40  102 1    
    81   41  103 1    
    82   41  104 1    
    83   41  105 1    
    84   42   43 am   BACKBONE|DICT|INTERRES
    85   42  106 1    
    86   43   44 2    
    87   43   45 1    
    88   45   46 1    
    89   45   49 1    
    90   45  107 1    
    91   46   47 1    
    92   46  108 1    
    93   46  109 1    
    94   47   48 1    
    95   48  110 1    
    96   48  111 1    
    97   49   50 am   BACKBONE|DICT|INTERRES
    98   49  112 1    
    99   50   51 2    
   100   50   52 1    
   101   52   53 1    
   102   52   54 1    
   103   52  113 1    
   104   53  114 1    
   105   53  115 1    
   106   53  116 1    
   107   54   55 am   BACKBONE|DICT|INTERRES
   108   54  117 1    
   109   55   56 2    
   110   55   57 1    
   111   57   58 1    
   112   57   59 1    
   113   57  118 1    
   114   58  119 1    
   115   58  120 1    
   116   58  121 1    
   117   59   60 am   BACKBONE|DICT|INTERRES
   118   59  122 1    
   119   60   61 2    
   120   60   62 1    
   121   62   63 1    
   122   62   64 1    
   123   62  123 1    
   124   63  124 1    
   125   63  125 1    
   126   63  126 1    
   127   64   65 am   BACKBONE|DICT|INTERRES
   128   64  127 1    
   129   65   66 2    
@<TRIPOS>SUBSTRUCTURE
     1 UNK         1 GROUP             0       ****    0 ROOT    
