@<TRIPOS>MOLECULE
3R135
127   129    1
SMALL
USER_CHARGES


@<TRIPOS>ATOM
      1 CA        -79.4227   22.3792  -70.2014 C.3       0 UNK        -0.1998 
      2 C         -79.7052   23.4987  -71.1911 C.2       0 UNK         0.4909 
      3 O         -79.0164   23.5996  -72.2066 O.2       0 UNK        -0.5240 
      4 N         -80.7140   24.3348  -70.9045 N.am      1 UNK        -0.4739 
      5 CA        -81.1527   25.4804  -71.7190 C.3       1 UNK         0.0864 
      6 C6        -80.0849   26.6139  -71.7949 C.3       11 UNK        -0.0881 
      7 S7        -79.4907   27.1935  -70.1691 S.3       11 UNK        -0.2682 
      8 C8        -79.9563   28.9551  -70.1985 C.3       11 UNK         0.0289 
      9 C9        -79.1514   29.7486  -71.2211 C.ar      11 UNK        -0.0687 
     10 C10       -79.7130   30.0829  -72.4577 C.ar      11 UNK        -0.0823 
     11 C11       -78.9864   30.8233  -73.3946 C.ar      11 UNK        -0.0830 
     12 C12       -77.6978   31.2581  -73.0723 C.ar      11 UNK        -0.1021 
     13 C13       -77.1226   30.9319  -71.8395 C.ar      11 UNK        -0.0753 
     14 C14       -77.8529   30.1717  -70.9202 C.ar      11 UNK        -0.0933 
     15 C15       -75.7265   31.4307  -71.4894 C.3       11 UNK         0.0166 
     16 S16       -74.4667   30.8415  -72.6634 S.3       11 UNK        -0.2615 
     17 C17       -74.3604   29.0640  -72.2540 C.3       11 UNK        -0.0865 
     18 CA        -72.9077   28.6022  -71.9600 C.3       10 UNK         0.0862 
     19 C         -72.8852   27.0876  -71.6000 C.2       10 UNK         0.5551 
     20 N         -72.4195   26.2014  -72.4742 N.am      10 UNK        -0.7319 
     21 O         -73.2972   26.7156  -70.5046 O.2       10 UNK        -0.5018 
     22 N         -71.9991   28.9761  -73.0525 N.am      10 UNK        -0.4509 
     23 C         -70.6634   28.8873  -73.0366 C.2       10 UNK         0.4899 
     24 O         -70.0093   28.6008  -72.0327 O.2       10 UNK        -0.4839 
     25 CA        -69.9396   29.1658  -74.3733 C.3       9 UNK         0.0222 
     26 CB        -68.6515   28.3292  -74.5259 C.3       9 UNK        -0.1966 
     27 N         -70.7999   29.0163  -75.5600 N.am      9 UNK        -0.4218 
     28 C         -71.4593   27.9139  -75.9530 C.2       9 UNK         0.5020 
     29 O         -71.4100   26.8368  -75.3520 O.2       9 UNK        -0.5274 
     30 CA        -72.3853   28.0975  -77.1701 C.3       8 UNK         0.0270 
     31 CB        -71.6531   28.6824  -78.3988 C.3       8 UNK        -0.1976 
     32 N         -73.1228   26.8781  -77.5120 N.am      8 UNK        -0.4313 
     33 C         -72.6616   25.7483  -78.0680 C.2       8 UNK         0.5041 
     34 O         -71.4983   25.5712  -78.4347 O.2       8 UNK        -0.5577 
     35 CA        -73.6833   24.6129  -78.2680 C.3       7 UNK         0.0284 
     36 CB        -73.5917   23.6082  -77.1089 C.3       7 UNK        -0.1958 
     37 N         -75.0673   25.0838  -78.3986 N.am      7 UNK        -0.4454 
     38 C         -75.5367   25.7923  -79.4363 C.2       7 UNK         0.5089 
     39 O         -74.8673   26.0785  -80.4295 O.2       7 UNK        -0.5125 
     40 CA        -76.9932   26.2809  -79.3479 C.3       6 UNK         0.0408 
     41 CB        -77.9621   25.1803  -79.8077 C.3       6 UNK        -0.1791 
     42 N         -77.3713   26.7368  -78.0078 N.am      6 UNK        -0.4762 
     43 C         -76.8606   27.8109  -77.3849 C.2       6 UNK         0.5007 
     44 O         -76.0157   28.5543  -77.8843 O.2       6 UNK        -0.5032 
     45 CA        -77.3363   28.0611  -75.9378 C.3       5 UNK         0.0783 
     46 C46       -78.7479   28.7009  -75.8871 C.3       11 UNK        -0.0857 
     47 S47       -78.6768   30.5046  -76.1598 S.3       11 UNK        -0.2512 
     48 C48       -79.6087   31.1745  -74.7410 C.3       11 UNK         0.0225 
     49 N         -77.2587   26.8308  -75.1474 N.am      5 UNK        -0.4615 
     50 C         -76.1131   26.2224  -74.8102 C.2       4 UNK         0.5053 
     51 O         -74.9992   26.6755  -75.0694 O.2       4 UNK        -0.5105 
     52 CA        -76.2285   24.8669  -74.0931 C.3       4 UNK         0.0263 
     53 CB        -76.1855   25.0577  -72.5697 C.3       4 UNK        -0.1981 
     54 N         -77.4326   24.1168  -74.4682 N.am      4 UNK        -0.4224 
     55 C         -77.6547   23.6197  -75.6943 C.2       3 UNK         0.4895 
     56 O         -76.8587   23.7259  -76.6266 O.2       3 UNK        -0.5091 
     57 CA        -79.0105   22.9402  -75.9426 C.3       3 UNK         0.0250 
     58 CB        -79.1014   21.5894  -75.2144 C.3       3 UNK        -0.1996 
     59 N         -80.1473   23.7861  -75.5714 N.am      3 UNK        -0.4254 
     60 C         -80.4442   24.9708  -76.1232 C.2       2 UNK         0.5004 
     61 O         -79.7726   25.4998  -77.0076 O.2       2 UNK        -0.5226 
     62 CA        -81.6583   25.7290  -75.5599 C.3       2 UNK         0.0269 
     63 CB        -82.9926   25.0830  -75.9841 C.3       2 UNK        -0.1926 
     64 N         -81.5582   25.9382  -74.1088 N.am      2 UNK        -0.4687 
     65 C         -81.6298   25.0283  -73.1246 C.2       1 UNK         0.5165 
     66 O         -82.0096   23.8680  -73.3057 O.2       1 UNK        -0.5079 
     67 H67       -79.5345   21.4119  -70.6903 H         1 UNK         0.0900 
     68 H68       -78.4012   22.4585  -69.8307 H         1 UNK         0.0900 
     69 H69       -80.0983   22.4095  -69.3468 H         1 UNK         0.0900 
     70 H70       -81.2542   24.1772  -70.0657 H         1 UNK         0.2959 
     71 H71       -82.0367   25.8850  -71.2237 H         1 UNK         0.1079 
     72 H72       -79.2186   26.2903  -72.3721 H         1 UNK         0.0837 
     73 H73       -80.4916   27.4723  -72.3249 H         1 UNK         0.0837 
     74 H74       -81.0264   29.0447  -70.3924 H         1 UNK         0.0685 
     75 H75       -79.7933   29.3762  -69.2054 H         1 UNK         0.0685 
     76 H76       -80.7217   29.7709  -72.6899 H         1 UNK         0.1434 
     77 H77       -77.1370   31.8460  -73.7865 H         1 UNK         0.1329 
     78 H78       -77.4190   29.9183  -69.9625 H         1 UNK         0.1335 
     79 H79       -75.4419   31.1372  -70.4777 H         1 UNK         0.0680 
     80 H80       -75.7321   32.5214  -71.5020 H         1 UNK         0.0680 
     81 H81       -75.0051   28.8482  -71.3996 H         1 UNK         0.1032 
     82 H82       -74.7783   28.5027  -73.0912 H         1 UNK         0.1032 
     83 H83       -72.5649   29.1345  -71.0708 H         1 UNK         0.0461 
     84 H84       -72.0958   26.4958  -73.3890 H         1 UNK         0.3453 
     85 H85       -72.4021   25.2260  -72.2263 H         1 UNK         0.3453 
     86 H86       -72.4473   29.2385  -73.9164 H         1 UNK         0.2984 
     87 H87       -69.6479   30.2165  -74.3418 H         1 UNK         0.0554 
     88 H88       -67.9453   28.5441  -73.7230 H         1 UNK         0.0847 
     89 H89       -68.1450   28.5470  -75.4661 H         1 UNK         0.0847 
     90 H90       -68.8590   27.2590  -74.4968 H         1 UNK         0.0847 
     91 H91       -70.9258   29.8582  -76.1055 H         1 UNK         0.3141 
     92 H92       -73.1516   28.8134  -76.8684 H         1 UNK         0.0743 
     93 H93       -70.7756   28.0937  -78.6684 H         1 UNK         0.0784 
     94 H94       -72.3100   28.7198  -79.2682 H         1 UNK         0.0784 
     95 H95       -71.3135   29.7016  -78.2140 H         1 UNK         0.0784 
     96 H96       -74.0778   26.8602  -77.1758 H         1 UNK         0.3213 
     97 H97       -73.4202   24.0933  -79.1918 H         1 UNK         0.0855 
     98 H98       -73.8222   24.0801  -76.1538 H         1 UNK         0.0814 
     99 H99       -72.5855   23.1943  -77.0313 H         1 UNK         0.0814 
    100 H100      -74.2775   22.7723  -77.2481 H         1 UNK         0.0814 
    101 H101      -75.7176   24.8101  -77.6644 H         1 UNK         0.3105 
    102 H102      -77.0992   27.1293  -80.0271 H         1 UNK         0.0547 
    103 H103      -77.7141   24.8346  -80.8120 H         1 UNK         0.0837 
    104 H104      -77.9323   24.3138  -79.1460 H         1 UNK         0.0837 
    105 H105      -78.9897   25.5431  -79.8337 H         1 UNK         0.0837 
    106 H106      -78.0935   26.1948  -77.5375 H         1 UNK         0.3020 
    107 H107      -76.6294   28.7606  -75.4832 H         1 UNK         0.1245 
    108 H108      -79.2048   28.5155  -74.9148 H         1 UNK         0.0781 
    109 H109      -79.4240   28.2541  -76.6186 H         1 UNK         0.0781 
    110 H110      -80.6392   30.8207  -74.8004 H         1 UNK         0.0836 
    111 H111      -79.6551   32.2603  -74.8342 H         1 UNK         0.0836 
    112 H112      -78.1270   26.3654  -74.9348 H         1 UNK         0.3022 
    113 H113      -75.3624   24.2679  -74.3788 H         1 UNK         0.0747 
    114 H114      -76.2187   24.1009  -72.0484 H         1 UNK         0.0793 
    115 H115      -75.2665   25.5572  -72.2672 H         1 UNK         0.0793 
    116 H116      -77.0154   25.6641  -72.2089 H         1 UNK         0.0793 
    117 H117      -78.1146   23.9471  -73.7277 H         1 UNK         0.3047 
    118 H118      -79.0846   22.7486  -77.0153 H         1 UNK         0.0822 
    119 H119      -80.0138   21.0568  -75.4831 H         1 UNK         0.0807 
    120 H120      -79.0922   21.7083  -74.1306 H         1 UNK         0.0807 
    121 H121      -78.2615   20.9459  -75.4796 H         1 UNK         0.0807 
    122 H122      -80.7354   23.4666  -74.8078 H         1 UNK         0.2946 
    123 H123      -81.6334   26.7256  -76.0051 H         1 UNK         0.1144 
    124 H124      -83.8438   25.6389  -75.5912 H         1 UNK         0.0793 
    125 H125      -83.0829   24.0501  -75.6480 H         1 UNK         0.0793 
    126 H126      -83.0860   25.0734  -77.0708 H         1 UNK         0.0793 
    127 H127      -81.2688   26.8693  -73.8468 H         1 UNK         0.2896 
@<TRIPOS>BOND
     1    1    2 1    
     2    1   67 1    
     3    1   68 1    
     4    1   69 1    
     5    2    3 2    
     6    2    4 am   BACKBONE|DICT|INTERRES
     7    4    5 1    
     8    4   70 1    
     9    5    6 1    
    10    5   65 1    
    11    5   71 1    
    12    6    7 1    
    13    6   72 1    
    14    6   73 1    
    15    7    8 1    
    16    8    9 1    
    17    8   74 1    
    18    8   75 1    
    19    9   10 ar   
    20    9   14 ar   
    21   10   11 ar   
    22   10   76 1    
    23   11   12 ar   
    24   11   48 1    
    25   12   13 ar   
    26   12   77 1    
    27   13   14 ar   
    28   13   15 1    
    29   14   78 1    
    30   15   16 1    
    31   15   79 1    
    32   15   80 1    
    33   16   17 1    
    34   17   18 1    
    35   17   81 1    
    36   17   82 1    
    37   18   19 1    
    38   18   22 1    
    39   18   83 1    
    40   19   20 am   BACKBONE|DICT|INTERRES
    41   19   21 2    
    42   20   84 1    
    43   20   85 1    
    44   22   23 am   BACKBONE|DICT|INTERRES
    45   22   86 1    
    46   23   24 2    
    47   23   25 1    
    48   25   26 1    
    49   25   27 1    
    50   25   87 1    
    51   26   88 1    
    52   26   89 1    
    53   26   90 1    
    54   27   28 am   BACKBONE|DICT|INTERRES
    55   27   91 1    
    56   28   29 2    
    57   28   30 1    
    58   30   31 1    
    59   30   32 1    
    60   30   92 1    
    61   31   93 1    
    62   31   94 1    
    63   31   95 1    
    64   32   33 am   BACKBONE|DICT|INTERRES
    65   32   96 1    
    66   33   34 2    
    67   33   35 1    
    68   35   36 1    
    69   35   37 1    
    70   35   97 1    
    71   36   98 1    
    72   36   99 1    
    73   36  100 1    
    74   37   38 am   BACKBONE|DICT|INTERRES
    75   37  101 1    
    76   38   39 2    
    77   38   40 1    
    78   40   41 1    
    79   40   42 1    
    80   40  102 1    
    81   41  103 1    
    82   41  104 1    
    83   41  105 1    
    84   42   43 am   BACKBONE|DICT|INTERRES
    85   42  106 1    
    86   43   44 2    
    87   43   45 1    
    88   45   46 1    
    89   45   49 1    
    90   45  107 1    
    91   46   47 1    
    92   46  108 1    
    93   46  109 1    
    94   47   48 1    
    95   48  110 1    
    96   48  111 1    
    97   49   50 am   BACKBONE|DICT|INTERRES
    98   49  112 1    
    99   50   51 2    
   100   50   52 1    
   101   52   53 1    
   102   52   54 1    
   103   52  113 1    
   104   53  114 1    
   105   53  115 1    
   106   53  116 1    
   107   54   55 am   BACKBONE|DICT|INTERRES
   108   54  117 1    
   109   55   56 2    
   110   55   57 1    
   111   57   58 1    
   112   57   59 1    
   113   57  118 1    
   114   58  119 1    
   115   58  120 1    
   116   58  121 1    
   117   59   60 am   BACKBONE|DICT|INTERRES
   118   59  122 1    
   119   60   61 2    
   120   60   62 1    
   121   62   63 1    
   122   62   64 1    
   123   62  123 1    
   124   63  124 1    
   125   63  125 1    
   126   63  126 1    
   127   64   65 am   BACKBONE|DICT|INTERRES
   128   64  127 1    
   129   65   66 2    
@<TRIPOS>SUBSTRUCTURE
     1 UNK         1 GROUP             0       ****    0 ROOT    
