@<TRIPOS>MOLECULE
3R135
127   129    1
SMALL
USER_CHARGES


@<TRIPOS>ATOM
      1 CA        -85.7809   26.7896  -72.8865 C.3       0 UNK        -0.1998 
      2 C         -84.5072   27.4158  -73.4341 C.2       0 UNK         0.4909 
      3 O         -84.5792   28.3184  -74.2685 O.2       0 UNK        -0.5240 
      4 N         -83.3425   26.9454  -72.9681 N.am      1 UNK        -0.4739 
      5 CA        -82.0161   27.4215  -73.3846 C.3       1 UNK         0.0864 
      6 C6        -80.9056   26.9093  -72.4370 C.3       11 UNK        -0.0881 
      7 S7        -80.9985   27.7195  -70.8063 S.3       11 UNK        -0.2682 
      8 C8        -79.3107   27.4511  -70.1555 C.3       11 UNK         0.0289 
      9 C9        -78.1659   28.0955  -70.9438 C.ar      11 UNK        -0.0687 
     10 C10       -78.3657   29.1157  -71.8854 C.ar      11 UNK        -0.0823 
     11 C11       -77.2908   29.6508  -72.6026 C.ar      11 UNK        -0.0830 
     12 C12       -75.9984   29.1893  -72.3448 C.ar      11 UNK        -0.1021 
     13 C13       -75.7792   28.1886  -71.3962 C.ar      11 UNK        -0.0753 
     14 C14       -76.8636   27.6461  -70.7024 C.ar      11 UNK        -0.0933 
     15 C15       -74.3675   27.6955  -71.1348 C.3       11 UNK         0.0166 
     16 S16       -73.4544   28.8819  -70.1031 S.3       11 UNK        -0.2615 
     17 C17       -71.7304   28.4886  -70.5500 C.3       11 UNK        -0.0865 
     18 CA        -71.1248   29.5277  -71.5323 C.3       10 UNK         0.0862 
     19 C         -69.5858   29.3288  -71.6757 C.2       10 UNK         0.5551 
     20 N         -69.0480   29.0956  -72.8668 N.am      10 UNK        -0.7319 
     21 O         -68.8642   29.3954  -70.6836 O.2       10 UNK        -0.5018 
     22 N         -71.8612   29.5634  -72.8087 N.am      10 UNK        -0.4509 
     23 C         -71.8695   30.5817  -73.6762 C.2       10 UNK         0.4899 
     24 O         -71.2904   31.6512  -73.4803 O.2       10 UNK        -0.4839 
     25 CA        -72.6212   30.3370  -75.0012 C.3       9 UNK         0.0222 
     26 CB        -72.6114   31.5663  -75.9287 C.3       9 UNK        -0.1966 
     27 N         -72.0668   29.1861  -75.7233 N.am      9 UNK        -0.4218 
     28 C         -72.3496   27.9080  -75.4452 C.2       9 UNK         0.5020 
     29 O         -73.1210   27.5640  -74.5493 O.2       9 UNK        -0.5274 
     30 CA        -71.5922   26.8367  -76.2318 C.3       8 UNK         0.0270 
     31 CB        -70.3185   26.4233  -75.4656 C.3       8 UNK        -0.1976 
     32 N         -72.4820   25.6940  -76.4257 N.am      8 UNK        -0.4313 
     33 C         -72.2600   24.6643  -77.2519 C.2       8 UNK         0.5041 
     34 O         -71.2279   24.5180  -77.9089 O.2       8 UNK        -0.5577 
     35 CA        -73.3954   23.6376  -77.4030 C.3       7 UNK         0.0284 
     36 CB        -73.5213   22.7591  -76.1474 C.3       7 UNK        -0.1958 
     37 N         -74.6816   24.2702  -77.7035 N.am      7 UNK        -0.4454 
     38 C         -74.9511   24.9588  -78.8236 C.2       7 UNK         0.5089 
     39 O         -74.1729   25.0606  -79.7726 O.2       7 UNK        -0.5125 
     40 CA        -76.3139   25.6708  -78.8992 C.3       6 UNK         0.0408 
     41 CB        -77.3746   24.7428  -79.5093 C.3       6 UNK        -0.1791 
     42 N         -76.7768   26.1672  -77.6005 N.am      6 UNK        -0.4762 
     43 C         -76.1601   27.1246  -76.8886 C.2       6 UNK         0.5007 
     44 O         -75.1671   27.7325  -77.2886 O.2       6 UNK        -0.5032 
     45 CA        -76.7309   27.4362  -75.4918 C.3       5 UNK         0.0783 
     46 C46       -77.7706   28.5862  -75.5372 C.3       11 UNK        -0.0857 
     47 S47       -76.9735   30.2161  -75.3270 S.3       11 UNK        -0.2512 
     48 C48       -77.5328   30.7197  -73.6625 C.3       11 UNK         0.0225 
     49 N         -77.2656   26.2301  -74.8529 N.am      5 UNK        -0.4615 
     50 C         -76.4987   25.2979  -74.2700 C.2       4 UNK         0.5053 
     51 O         -75.2721   25.3546  -74.2100 O.2       4 UNK        -0.5105 
     52 CA        -77.2154   24.0697  -73.6866 C.3       4 UNK         0.0263 
     53 CB        -77.7945   24.3836  -72.2983 C.3       4 UNK        -0.1981 
     54 N         -78.2671   23.5494  -74.5635 N.am      4 UNK        -0.4224 
     55 C         -78.0415   23.0260  -75.7772 C.2       3 UNK         0.4895 
     56 O         -76.9255   22.9301  -76.2870 O.2       3 UNK        -0.5091 
     57 CA        -79.2692   22.5512  -76.5718 C.3       3 UNK         0.0250 
     58 CB        -79.6294   21.1071  -76.1881 C.3       3 UNK        -0.1996 
     59 N         -80.4573   23.4025  -76.4404 N.am      3 UNK        -0.4254 
     60 C         -80.5157   24.7156  -76.7083 C.2       2 UNK         0.5004 
     61 O         -79.5312   25.4025  -76.9840 O.2       2 UNK        -0.5226 
     62 CA        -81.9067   25.3711  -76.6502 C.3       2 UNK         0.0269 
     63 CB        -83.0513   24.4204  -77.0554 C.3       2 UNK        -0.1926 
     64 N         -82.1726   25.9030  -75.3147 N.am      2 UNK        -0.4687 
     65 C         -81.6805   27.0574  -74.8446 C.2       1 UNK         0.5165 
     66 O         -80.9902   27.8283  -75.5101 O.2       1 UNK        -0.5079 
     67 H67       -85.5706   26.0116  -72.1528 H         1 UNK         0.0900 
     68 H68       -86.3962   27.5502  -72.4066 H         1 UNK         0.0900 
     69 H69       -86.3584   26.3448  -73.6964 H         1 UNK         0.0900 
     70 H70       -83.3466   26.2254  -72.2594 H         1 UNK         0.2959 
     71 H71       -82.0277   28.5135  -73.3414 H         1 UNK         0.1079 
     72 H72       -80.9729   25.8282  -72.3025 H         1 UNK         0.0837 
     73 H73       -79.9206   27.1005  -72.8650 H         1 UNK         0.0837 
     74 H74       -79.2772   27.8319  -69.1340 H         1 UNK         0.0685 
     75 H75       -79.1437   26.3750  -70.0875 H         1 UNK         0.0685 
     76 H76       -79.3609   29.4887  -72.0797 H         1 UNK         0.1434 
     77 H77       -75.1608   29.6020  -72.8899 H         1 UNK         0.1329 
     78 H78       -76.6924   26.8687  -69.9703 H         1 UNK         0.1335 
     79 H79       -73.8599   27.5530  -72.0877 H         1 UNK         0.0680 
     80 H80       -74.3773   26.7209  -70.6445 H         1 UNK         0.0680 
     81 H81       -71.6669   27.4804  -70.9635 H         1 UNK         0.1032 
     82 H82       -71.1600   28.4650  -69.6193 H         1 UNK         0.1032 
     83 H83       -71.2414   30.5103  -71.0709 H         1 UNK         0.0461 
     84 H84       -68.0504   28.9742  -72.9431 H         1 UNK         0.3453 
     85 H85       -69.6279   29.0666  -73.6878 H         1 UNK         0.3453 
     86 H86       -72.3466   28.7149  -73.0805 H         1 UNK         0.2984 
     87 H87       -73.6635   30.1287  -74.7500 H         1 UNK         0.0554 
     88 H88       -73.0502   32.4327  -75.4321 H         1 UNK         0.0847 
     89 H89       -73.1952   31.3848  -76.8314 H         1 UNK         0.0847 
     90 H90       -71.5997   31.8403  -76.2306 H         1 UNK         0.0847 
     91 H91       -71.3934   29.3907  -76.4482 H         1 UNK         0.3141 
     92 H92       -71.3223   27.2367  -77.2114 H         1 UNK         0.0743 
     93 H93       -70.5583   25.9996  -74.4893 H         1 UNK         0.0784 
     94 H94       -69.7359   25.6846  -76.0153 H         1 UNK         0.0784 
     95 H95       -69.6656   27.2805  -75.2988 H         1 UNK         0.0784 
     96 H96       -73.3538   25.7517  -75.9082 H         1 UNK         0.3213 
     97 H97       -73.1437   22.9873  -78.2435 H         1 UNK         0.0855 
     98 H98       -73.8149   23.3387  -75.2719 H         1 UNK         0.0814 
     99 H99       -72.5726   22.2736  -75.9146 H         1 UNK         0.0814 
    100 H100      -74.2620   21.9718  -76.2885 H         1 UNK         0.0814 
    101 H101      -75.4185   24.1629  -77.0143 H         1 UNK         0.3105 
    102 H102      -76.2010   26.5336  -79.5588 H         1 UNK         0.0547 
    103 H103      -78.3402   25.2414  -79.5950 H         1 UNK         0.0837 
    104 H104      -77.5116   23.8433  -78.9105 H         1 UNK         0.0837 
    105 H105      -77.0829   24.4246  -80.5109 H         1 UNK         0.0837 
    106 H106      -77.6356   25.7625  -77.2356 H         1 UNK         0.3020 
    107 H107      -75.8846   27.7628  -74.8809 H         1 UNK         0.1245 
    108 H108      -78.5100   28.4625  -74.7460 H         1 UNK         0.0781 
    109 H109      -78.3466   28.5808  -76.4650 H         1 UNK         0.0781 
    110 H110      -78.5912   30.9792  -73.7170 H         1 UNK         0.0836 
    111 H111      -77.0087   31.6320  -73.3745 H         1 UNK         0.0836 
    112 H112      -78.2596   26.0743  -74.9370 H         1 UNK         0.3022 
    113 H113      -76.4683   23.2816  -73.5679 H         1 UNK         0.0747 
    114 H114      -78.2462   23.5011  -71.8450 H         1 UNK         0.0793 
    115 H115      -77.0111   24.7285  -71.6221 H         1 UNK         0.0793 
    116 H116      -78.5507   25.1657  -72.3421 H         1 UNK         0.0793 
    117 H117      -79.2169   23.5857  -74.2244 H         1 UNK         0.3047 
    118 H118      -78.9912   22.5553  -77.6269 H         1 UNK         0.0822 
    119 H119      -80.4177   20.7102  -76.8281 H         1 UNK         0.0807 
    120 H120      -79.9674   21.0346  -75.1536 H         1 UNK         0.0807 
    121 H121      -78.7667   20.4477  -76.2960 H         1 UNK         0.0807 
    122 H122      -81.3199   22.9309  -76.2106 H         1 UNK         0.2946 
    123 H123      -81.8942   26.1967  -77.3662 H         1 UNK         0.1144 
    124 H124      -83.2103   23.6227  -76.3291 H         1 UNK         0.0793 
    125 H125      -82.8530   23.9559  -78.0226 H         1 UNK         0.0793 
    126 H126      -83.9909   24.9650  -77.1516 H         1 UNK         0.0793 
    127 H127      -82.7378   25.3384  -74.6972 H         1 UNK         0.2896 
@<TRIPOS>BOND
     1    1    2 1    
     2    1   67 1    
     3    1   68 1    
     4    1   69 1    
     5    2    3 2    
     6    2    4 am   BACKBONE|DICT|INTERRES
     7    4    5 1    
     8    4   70 1    
     9    5    6 1    
    10    5   65 1    
    11    5   71 1    
    12    6    7 1    
    13    6   72 1    
    14    6   73 1    
    15    7    8 1    
    16    8    9 1    
    17    8   74 1    
    18    8   75 1    
    19    9   10 ar   
    20    9   14 ar   
    21   10   11 ar   
    22   10   76 1    
    23   11   12 ar   
    24   11   48 1    
    25   12   13 ar   
    26   12   77 1    
    27   13   14 ar   
    28   13   15 1    
    29   14   78 1    
    30   15   16 1    
    31   15   79 1    
    32   15   80 1    
    33   16   17 1    
    34   17   18 1    
    35   17   81 1    
    36   17   82 1    
    37   18   19 1    
    38   18   22 1    
    39   18   83 1    
    40   19   20 am   BACKBONE|DICT|INTERRES
    41   19   21 2    
    42   20   84 1    
    43   20   85 1    
    44   22   23 am   BACKBONE|DICT|INTERRES
    45   22   86 1    
    46   23   24 2    
    47   23   25 1    
    48   25   26 1    
    49   25   27 1    
    50   25   87 1    
    51   26   88 1    
    52   26   89 1    
    53   26   90 1    
    54   27   28 am   BACKBONE|DICT|INTERRES
    55   27   91 1    
    56   28   29 2    
    57   28   30 1    
    58   30   31 1    
    59   30   32 1    
    60   30   92 1    
    61   31   93 1    
    62   31   94 1    
    63   31   95 1    
    64   32   33 am   BACKBONE|DICT|INTERRES
    65   32   96 1    
    66   33   34 2    
    67   33   35 1    
    68   35   36 1    
    69   35   37 1    
    70   35   97 1    
    71   36   98 1    
    72   36   99 1    
    73   36  100 1    
    74   37   38 am   BACKBONE|DICT|INTERRES
    75   37  101 1    
    76   38   39 2    
    77   38   40 1    
    78   40   41 1    
    79   40   42 1    
    80   40  102 1    
    81   41  103 1    
    82   41  104 1    
    83   41  105 1    
    84   42   43 am   BACKBONE|DICT|INTERRES
    85   42  106 1    
    86   43   44 2    
    87   43   45 1    
    88   45   46 1    
    89   45   49 1    
    90   45  107 1    
    91   46   47 1    
    92   46  108 1    
    93   46  109 1    
    94   47   48 1    
    95   48  110 1    
    96   48  111 1    
    97   49   50 am   BACKBONE|DICT|INTERRES
    98   49  112 1    
    99   50   51 2    
   100   50   52 1    
   101   52   53 1    
   102   52   54 1    
   103   52  113 1    
   104   53  114 1    
   105   53  115 1    
   106   53  116 1    
   107   54   55 am   BACKBONE|DICT|INTERRES
   108   54  117 1    
   109   55   56 2    
   110   55   57 1    
   111   57   58 1    
   112   57   59 1    
   113   57  118 1    
   114   58  119 1    
   115   58  120 1    
   116   58  121 1    
   117   59   60 am   BACKBONE|DICT|INTERRES
   118   59  122 1    
   119   60   61 2    
   120   60   62 1    
   121   62   63 1    
   122   62   64 1    
   123   62  123 1    
   124   63  124 1    
   125   63  125 1    
   126   63  126 1    
   127   64   65 am   BACKBONE|DICT|INTERRES
   128   64  127 1    
   129   65   66 2    
@<TRIPOS>SUBSTRUCTURE
     1 UNK         1 GROUP             0       ****    0 ROOT    
