@<TRIPOS>MOLECULE
3R135
127   129    1
SMALL
USER_CHARGES


@<TRIPOS>ATOM
      1 CA        -84.5226   25.0222  -74.7489 C.3       0 UNK        -0.1998 
      2 C         -83.4858   26.1123  -74.5271 C.2       0 UNK         0.4909 
      3 O         -83.1134   26.8032  -75.4761 O.2       0 UNK        -0.5240 
      4 N         -83.0140   26.2778  -73.2833 N.am      1 UNK        -0.4739 
      5 CA        -81.9917   27.2634  -72.9146 C.3       1 UNK         0.0864 
      6 C6        -81.8685   27.4259  -71.3787 C.3       11 UNK        -0.0881 
      7 S7        -81.3943   29.1262  -70.9130 S.3       11 UNK        -0.2682 
      8 C8        -79.9484   28.8569  -69.8398 C.3       11 UNK         0.0289 
      9 C9        -78.6863   28.5595  -70.6360 C.ar      11 UNK        -0.0687 
     10 C10       -78.2111   27.2494  -70.7454 C.ar      11 UNK        -0.0823 
     11 C11       -77.0374   26.9778  -71.4549 C.ar      11 UNK        -0.0830 
     12 C12       -76.3389   28.0287  -72.0565 C.ar      11 UNK        -0.1021 
     13 C13       -76.8113   29.3405  -71.9673 C.ar      11 UNK        -0.0753 
     14 C14       -77.9821   29.6014  -71.2487 C.ar      11 UNK        -0.0933 
     15 C15       -76.0800   30.4616  -72.6893 C.3       11 UNK         0.0166 
     16 S16       -74.4256   30.7599  -71.9971 S.3       11 UNK        -0.2615 
     17 C17       -73.8142   32.0121  -73.1766 C.3       11 UNK        -0.0865 
     18 CA        -73.1537   31.3921  -74.4449 C.3       10 UNK         0.0862 
     19 C         -72.7942   32.4644  -75.5203 C.2       10 UNK         0.5551 
     20 N         -71.7173   32.3115  -76.2834 N.am      10 UNK        -0.7319 
     21 O         -73.5211   33.4402  -75.6910 O.2       10 UNK        -0.5018 
     22 N         -72.0649   30.4473  -74.1440 N.am      10 UNK        -0.4509 
     23 C         -70.9091   30.7394  -73.5299 C.2       10 UNK         0.4899 
     24 O         -70.6432   31.8358  -73.0369 O.2       10 UNK        -0.4839 
     25 CA        -69.8446   29.6268  -73.4816 C.3       9 UNK         0.0222 
     26 CB        -69.9084   28.8890  -72.1343 C.3       9 UNK        -0.1966 
     27 N         -69.9453   28.6491  -74.5712 N.am      9 UNK        -0.4218 
     28 C         -69.8766   28.9202  -75.8842 C.2       9 UNK         0.5020 
     29 O         -69.6835   30.0475  -76.3421 O.2       9 UNK        -0.5274 
     30 CA        -70.0909   27.7426  -76.8534 C.3       8 UNK         0.0270 
     31 CB        -68.7409   27.2254  -77.3766 C.3       8 UNK        -0.1976 
     32 N         -70.8454   26.6261  -76.2708 N.am      8 UNK        -0.4313 
     33 C         -72.1366   26.6772  -75.9166 C.2       8 UNK         0.5041 
     34 O         -72.8440   27.6809  -76.0323 O.2       8 UNK        -0.5577 
     35 CA        -72.7142   25.4129  -75.2642 C.3       7 UNK         0.0284 
     36 CB        -72.9520   25.6432  -73.7622 C.3       7 UNK        -0.1958 
     37 N         -73.9684   25.0073  -75.8958 N.am      7 UNK        -0.4454 
     38 C         -74.0697   24.4423  -77.1076 C.2       7 UNK         0.5089 
     39 O         -73.1026   24.2270  -77.8410 O.2       7 UNK        -0.5125 
     40 CA        -75.4879   24.0245  -77.5552 C.3       6 UNK         0.0408 
     41 CB        -75.4846   22.9756  -78.6871 C.3       6 UNK        -0.1791 
     42 N         -76.3296   23.5894  -76.4320 N.am      6 UNK        -0.4762 
     43 C         -76.1001   22.5567  -75.6019 C.2       6 UNK         0.5007 
     44 O         -75.1914   21.7393  -75.7545 O.2       6 UNK        -0.5032 
     45 CA        -77.0164   22.4296  -74.3692 C.3       5 UNK         0.0783 
     46 C46       -76.4408   23.1995  -73.1533 C.3       11 UNK        -0.0857 
     47 S47       -76.5766   25.0108  -73.3206 S.3       11 UNK        -0.2512 
     48 C48       -76.5325   25.5495  -71.5864 C.3       11 UNK         0.0225 
     49 N         -78.3987   22.8166  -74.6631 N.am      5 UNK        -0.4615 
     50 C         -79.2959   22.0141  -75.2476 C.2       4 UNK         0.5053 
     51 O         -79.0624   20.8544  -75.5889 O.2       4 UNK        -0.5105 
     52 CA        -80.6911   22.6067  -75.4879 C.3       4 UNK         0.0263 
     53 CB        -81.5085   22.6217  -74.1857 C.3       4 UNK        -0.1981 
     54 N         -80.6161   23.9539  -76.0580 N.am      4 UNK        -0.4224 
     55 C         -80.3291   24.1964  -77.3472 C.2       3 UNK         0.4895 
     56 O         -80.1450   23.3088  -78.1808 O.2       3 UNK        -0.5091 
     57 CA        -80.2384   25.6625  -77.8065 C.3       3 UNK         0.0250 
     58 CB        -81.5156   26.0724  -78.5575 C.3       3 UNK        -0.1996 
     59 N         -79.9942   26.6057  -76.7143 N.am      3 UNK        -0.4254 
     60 C         -78.8132   26.7518  -76.0964 C.2       2 UNK         0.5004 
     61 O         -77.8074   26.1090  -76.3923 O.2       2 UNK        -0.5226 
     62 CA        -78.7470   27.7622  -74.9373 C.3       2 UNK         0.0269 
     63 CB        -78.3018   29.1384  -75.4551 C.3       2 UNK        -0.1926 
     64 N         -80.0062   27.9089  -74.2013 N.am      2 UNK        -0.4687 
     65 C         -80.6427   26.9124  -73.5720 C.2       1 UNK         0.5165 
     66 O         -80.2325   25.7489  -73.5364 O.2       1 UNK        -0.5079 
     67 H67       -84.6738   24.4153  -73.8565 H         1 UNK         0.0900 
     68 H68       -85.4784   25.4668  -75.0246 H         1 UNK         0.0900 
     69 H69       -84.2080   24.3648  -75.5590 H         1 UNK         0.0900 
     70 H70       -83.3273   25.6653  -72.5440 H         1 UNK         0.2959 
     71 H71       -82.3357   28.2130  -73.3320 H         1 UNK         0.1079 
     72 H72       -81.1842   26.6929  -70.9474 H         1 UNK         0.0837 
     73 H73       -82.8327   27.2398  -70.9028 H         1 UNK         0.0837 
     74 H74       -80.1610   28.0564  -69.1293 H         1 UNK         0.0685 
     75 H75       -79.7887   29.7549  -69.2411 H         1 UNK         0.0685 
     76 H76       -78.7565   26.4405  -70.2790 H         1 UNK         0.1434 
     77 H77       -75.4373   27.8232  -72.6168 H         1 UNK         0.1329 
     78 H78       -78.3555   30.6136  -71.1740 H         1 UNK         0.1335 
     79 H79       -75.9827   30.1962  -73.7426 H         1 UNK         0.0680 
     80 H80       -76.6574   31.3868  -72.6525 H         1 UNK         0.0680 
     81 H81       -73.1073   32.6588  -72.6552 H         1 UNK         0.1032 
     82 H82       -74.6488   32.6587  -73.4539 H         1 UNK         0.1032 
     83 H83       -73.9153   30.7819  -74.9311 H         1 UNK         0.0461 
     84 H84       -71.5073   33.0083  -76.9800 H         1 UNK         0.3453 
     85 H85       -71.1033   31.5124  -76.1715 H         1 UNK         0.3453 
     86 H86       -72.1794   29.5226  -74.5371 H         1 UNK         0.2984 
     87 H87       -68.8675   30.1068  -73.5648 H         1 UNK         0.0554 
     88 H88       -69.8056   29.5876  -71.3025 H         1 UNK         0.0847 
     89 H89       -69.1051   28.1580  -72.0402 H         1 UNK         0.0847 
     90 H90       -70.8577   28.3676  -72.0037 H         1 UNK         0.0847 
     91 H91       -70.0995   27.6891  -74.3016 H         1 UNK         0.3141 
     92 H92       -70.6629   28.1238  -77.7022 H         1 UNK         0.0743 
     93 H93       -68.1268   26.8126  -76.5752 H         1 UNK         0.0784 
     94 H94       -68.8775   26.4500  -78.1308 H         1 UNK         0.0784 
     95 H95       -68.1696   28.0296  -77.8429 H         1 UNK         0.0784 
     96 H96       -70.3415   25.7589  -76.1464 H         1 UNK         0.3213 
     97 H97       -72.0016   24.5923  -75.3741 H         1 UNK         0.0855 
     98 H98       -73.6678   26.4471  -73.5865 H         1 UNK         0.0814 
     99 H99       -72.0259   25.9155  -73.2547 H         1 UNK         0.0814 
    100 H100      -73.3334   24.7442  -73.2776 H         1 UNK         0.0814 
    101 H101      -74.8188   25.1809  -75.3780 H         1 UNK         0.3105 
    102 H102      -75.9540   24.9272  -77.9517 H         1 UNK         0.0547 
    103 H103      -76.4993   22.7060  -78.9796 H         1 UNK         0.0837 
    104 H104      -74.9645   22.0630  -78.3953 H         1 UNK         0.0837 
    105 H105      -74.9842   23.3626  -79.5754 H         1 UNK         0.0837 
    106 H106      -77.0751   24.2391  -76.1976 H         1 UNK         0.3020 
    107 H107      -77.0140   21.3700  -74.1012 H         1 UNK         0.1245 
    108 H108      -75.3957   22.9358  -72.9791 H         1 UNK         0.0781 
    109 H109      -76.9783   22.8906  -72.2556 H         1 UNK         0.0781 
    110 H110      -75.5106   25.4825  -71.2106 H         1 UNK         0.0836 
    111 H111      -77.1364   24.8750  -70.9778 H         1 UNK         0.0836 
    112 H112      -78.6675   23.7549  -74.3973 H         1 UNK         0.3022 
    113 H113      -81.2108   21.9577  -76.1965 H         1 UNK         0.0747 
    114 H114      -82.5263   22.9657  -74.3607 H         1 UNK         0.0793 
    115 H115      -81.5783   21.6194  -73.7609 H         1 UNK         0.0793 
    116 H116      -81.0612   23.2633  -73.4264 H         1 UNK         0.0793 
    117 H117      -80.7071   24.7321  -75.4157 H         1 UNK         0.3047 
    118 H118      -79.4012   25.7298  -78.5051 H         1 UNK         0.0822 
    119 H119      -81.4470   27.0939  -78.9320 H         1 UNK         0.0807 
    120 H120      -82.3987   26.0055  -77.9215 H         1 UNK         0.0807 
    121 H121      -81.6864   25.4240  -79.4179 H         1 UNK         0.0807 
    122 H122      -80.7866   27.1427  -76.3870 H         1 UNK         0.2946 
    123 H123      -77.9988   27.3985  -74.2326 H         1 UNK         0.1144 
    124 H124      -78.2363   29.8654  -74.6463 H         1 UNK         0.0793 
    125 H125      -78.9924   29.5319  -76.2020 H         1 UNK         0.0793 
    126 H126      -77.3164   29.0777  -75.9195 H         1 UNK         0.0793 
    127 H127      -80.4084   28.8349  -74.1782 H         1 UNK         0.2896 
@<TRIPOS>BOND
     1    1    2 1    
     2    1   67 1    
     3    1   68 1    
     4    1   69 1    
     5    2    3 2    
     6    2    4 am   BACKBONE|DICT|INTERRES
     7    4    5 1    
     8    4   70 1    
     9    5    6 1    
    10    5   65 1    
    11    5   71 1    
    12    6    7 1    
    13    6   72 1    
    14    6   73 1    
    15    7    8 1    
    16    8    9 1    
    17    8   74 1    
    18    8   75 1    
    19    9   10 ar   
    20    9   14 ar   
    21   10   11 ar   
    22   10   76 1    
    23   11   12 ar   
    24   11   48 1    
    25   12   13 ar   
    26   12   77 1    
    27   13   14 ar   
    28   13   15 1    
    29   14   78 1    
    30   15   16 1    
    31   15   79 1    
    32   15   80 1    
    33   16   17 1    
    34   17   18 1    
    35   17   81 1    
    36   17   82 1    
    37   18   19 1    
    38   18   22 1    
    39   18   83 1    
    40   19   20 am   BACKBONE|DICT|INTERRES
    41   19   21 2    
    42   20   84 1    
    43   20   85 1    
    44   22   23 am   BACKBONE|DICT|INTERRES
    45   22   86 1    
    46   23   24 2    
    47   23   25 1    
    48   25   26 1    
    49   25   27 1    
    50   25   87 1    
    51   26   88 1    
    52   26   89 1    
    53   26   90 1    
    54   27   28 am   BACKBONE|DICT|INTERRES
    55   27   91 1    
    56   28   29 2    
    57   28   30 1    
    58   30   31 1    
    59   30   32 1    
    60   30   92 1    
    61   31   93 1    
    62   31   94 1    
    63   31   95 1    
    64   32   33 am   BACKBONE|DICT|INTERRES
    65   32   96 1    
    66   33   34 2    
    67   33   35 1    
    68   35   36 1    
    69   35   37 1    
    70   35   97 1    
    71   36   98 1    
    72   36   99 1    
    73   36  100 1    
    74   37   38 am   BACKBONE|DICT|INTERRES
    75   37  101 1    
    76   38   39 2    
    77   38   40 1    
    78   40   41 1    
    79   40   42 1    
    80   40  102 1    
    81   41  103 1    
    82   41  104 1    
    83   41  105 1    
    84   42   43 am   BACKBONE|DICT|INTERRES
    85   42  106 1    
    86   43   44 2    
    87   43   45 1    
    88   45   46 1    
    89   45   49 1    
    90   45  107 1    
    91   46   47 1    
    92   46  108 1    
    93   46  109 1    
    94   47   48 1    
    95   48  110 1    
    96   48  111 1    
    97   49   50 am   BACKBONE|DICT|INTERRES
    98   49  112 1    
    99   50   51 2    
   100   50   52 1    
   101   52   53 1    
   102   52   54 1    
   103   52  113 1    
   104   53  114 1    
   105   53  115 1    
   106   53  116 1    
   107   54   55 am   BACKBONE|DICT|INTERRES
   108   54  117 1    
   109   55   56 2    
   110   55   57 1    
   111   57   58 1    
   112   57   59 1    
   113   57  118 1    
   114   58  119 1    
   115   58  120 1    
   116   58  121 1    
   117   59   60 am   BACKBONE|DICT|INTERRES
   118   59  122 1    
   119   60   61 2    
   120   60   62 1    
   121   62   63 1    
   122   62   64 1    
   123   62  123 1    
   124   63  124 1    
   125   63  125 1    
   126   63  126 1    
   127   64   65 am   BACKBONE|DICT|INTERRES
   128   64  127 1    
   129   65   66 2    
@<TRIPOS>SUBSTRUCTURE
     1 UNK         1 GROUP             0       ****    0 ROOT    
