@<TRIPOS>MOLECULE
3R135
127   129    1
SMALL
USER_CHARGES


@<TRIPOS>ATOM
      1 CA        -84.4980   24.8502  -70.0148 C.3       0 UNK        -0.1998 
      2 C         -84.0525   25.7286  -71.1744 C.2       0 UNK         0.4909 
      3 O         -84.8893   26.3598  -71.8216 O.2       0 UNK        -0.5240 
      4 N         -82.7403   25.7818  -71.4336 N.am      1 UNK        -0.4739 
      5 CA        -82.1329   26.5279  -72.5418 C.3       1 UNK         0.0864 
      6 C6        -80.5997   26.6635  -72.3702 C.3       11 UNK        -0.0881 
      7 S7        -80.1414   27.5097  -70.8199 S.3       11 UNK        -0.2682 
      8 C8        -79.8160   29.2047  -71.3960 C.3       11 UNK         0.0289 
      9 C9        -78.5136   29.2988  -72.1770 C.ar      11 UNK        -0.0687 
     10 C10       -78.5305   29.3933  -73.5720 C.ar      11 UNK        -0.0823 
     11 C11       -77.3359   29.4948  -74.2899 C.ar      11 UNK        -0.0830 
     12 C12       -76.1186   29.5064  -73.6027 C.ar      11 UNK        -0.1021 
     13 C13       -76.0897   29.4143  -72.2083 C.ar      11 UNK        -0.0753 
     14 C14       -77.2901   29.3108  -71.4999 C.ar      11 UNK        -0.0933 
     15 C15       -74.7595   29.4313  -71.4744 C.3       11 UNK         0.0166 
     16 S16       -74.1749   31.1373  -71.2312 S.3       11 UNK        -0.2615 
     17 C17       -72.3918   30.8617  -70.9490 C.3       11 UNK        -0.0865 
     18 CA        -71.5386   31.1493  -72.2142 C.3       10 UNK         0.0862 
     19 C         -70.0176   31.0446  -71.8980 C.2       10 UNK         0.5551 
     20 N         -69.2684   30.1247  -72.4952 N.am      10 UNK        -0.7319 
     21 O         -69.5067   31.8214  -71.0949 O.2       10 UNK        -0.5018 
     22 N         -71.9740   30.3303  -73.3553 N.am      10 UNK        -0.4509 
     23 C         -71.7866   30.6375  -74.6419 C.2       10 UNK         0.4899 
     24 O         -71.2564   31.6748  -75.0438 O.2       10 UNK        -0.4839 
     25 CA        -72.2637   29.5805  -75.6513 C.3       9 UNK         0.0222 
     26 CB        -73.1880   30.1986  -76.7137 C.3       9 UNK        -0.1966 
     27 N         -71.1496   28.8944  -76.3098 N.am      9 UNK        -0.4218 
     28 C         -70.1686   28.2202  -75.6939 C.2       9 UNK         0.5020 
     29 O         -70.0689   28.1095  -74.4697 O.2       9 UNK        -0.5274 
     30 CA        -69.1886   27.4734  -76.6111 C.3       8 UNK         0.0270 
     31 CB        -67.9115   27.0256  -75.8754 C.3       8 UNK        -0.1976 
     32 N         -69.8818   26.2969  -77.1286 N.am      8 UNK        -0.4313 
     33 C         -70.5526   26.2464  -78.2862 C.2       8 UNK         0.5041 
     34 O         -70.5109   27.1281  -79.1451 O.2       8 UNK        -0.5577 
     35 CA        -71.4798   25.0328  -78.4791 C.3       7 UNK         0.0284 
     36 CB        -70.6918   23.8164  -78.9919 C.3       7 UNK        -0.1958 
     37 N         -72.1973   24.6798  -77.2464 N.am      7 UNK        -0.4454 
     38 C         -73.1036   25.4691  -76.6510 C.2       7 UNK         0.5089 
     39 O         -73.4754   26.5508  -77.1087 O.2       7 UNK        -0.5125 
     40 CA        -73.6320   24.9934  -75.2866 C.3       6 UNK         0.0408 
     41 CB        -72.6834   25.4482  -74.1643 C.3       6 UNK        -0.1791 
     42 N         -74.9736   25.5086  -75.0054 N.am      6 UNK        -0.4762 
     43 C         -76.0917   25.0994  -75.6192 C.2       6 UNK         0.5007 
     44 O         -76.1183   24.2002  -76.4645 O.2       6 UNK        -0.5032 
     45 CA        -77.4067   25.8091  -75.2143 C.3       5 UNK         0.0783 
     46 C46       -77.8563   26.8540  -76.2697 C.3       11 UNK        -0.0857 
     47 S47       -76.6332   28.1666  -76.6216 S.3       11 UNK        -0.2512 
     48 C48       -77.3590   29.6203  -75.8055 C.3       11 UNK         0.0225 
     49 N         -78.4638   24.8149  -74.9830 N.am      5 UNK        -0.4615 
     50 C         -78.4239   23.8625  -74.0364 C.2       4 UNK         0.5053 
     51 O         -77.5677   23.8349  -73.1517 O.2       4 UNK        -0.5105 
     52 CA        -79.4912   22.7475  -74.0622 C.3       4 UNK         0.0263 
     53 CB        -80.2020   22.5987  -72.7047 C.3       4 UNK        -0.1981 
     54 N         -80.4918   22.9162  -75.1193 N.am      4 UNK        -0.4224 
     55 C         -80.3395   22.4975  -76.3852 C.2       3 UNK         0.4895 
     56 O         -79.3580   21.8676  -76.7796 O.2       3 UNK        -0.5091 
     57 CA        -81.4523   22.8425  -77.3958 C.3       3 UNK         0.0250 
     58 CB        -82.3584   21.6232  -77.6325 C.3       3 UNK        -0.1996 
     59 N         -82.2834   23.9888  -77.0151 N.am      3 UNK        -0.4254 
     60 C         -81.8428   25.2438  -76.8524 C.2       2 UNK         0.5004 
     61 O         -80.6732   25.5817  -77.0317 O.2       2 UNK        -0.5226 
     62 CA        -82.8520   26.2909  -76.3433 C.3       2 UNK         0.0269 
     63 CB        -84.3310   25.8629  -76.4865 C.3       2 UNK        -0.1926 
     64 N         -82.5664   26.6852  -74.9559 N.am      2 UNK        -0.4687 
     65 C         -82.4651   25.8676  -73.8960 C.2       1 UNK         0.5165 
     66 O         -82.5861   24.6407  -73.9626 O.2       1 UNK        -0.5079 
     67 H67       -85.0229   25.4485  -69.2706 H         1 UNK         0.0900 
     68 H68       -85.1767   24.0757  -70.3710 H         1 UNK         0.0900 
     69 H69       -83.6550   24.3631  -69.5251 H         1 UNK         0.0900 
     70 H70       -82.0990   25.2453  -70.8680 H         1 UNK         0.2959 
     71 H71       -82.5696   27.5294  -72.5422 H         1 UNK         0.1079 
     72 H72       -80.1597   27.1879  -73.2186 H         1 UNK         0.0837 
     73 H73       -80.1245   25.6830  -72.3566 H         1 UNK         0.0837 
     74 H74       -80.6582   29.5548  -71.9949 H         1 UNK         0.0685 
     75 H75       -79.7642   29.8655  -70.5294 H         1 UNK         0.0685 
     76 H76       -79.4749   29.3955  -74.0986 H         1 UNK         0.1434 
     77 H77       -75.1934   29.5950  -74.1553 H         1 UNK         0.1329 
     78 H78       -77.2747   29.2423  -70.4206 H         1 UNK         0.1335 
     79 H79       -74.8470   28.9387  -70.5047 H         1 UNK         0.0680 
     80 H80       -74.0278   28.8584  -72.0446 H         1 UNK         0.0680 
     81 H81       -72.0875   31.5193  -70.1322 H         1 UNK         0.1032 
     82 H82       -72.2240   29.8447  -70.5895 H         1 UNK         0.1032 
     83 H83       -71.7092   32.1937  -72.4834 H         1 UNK         0.0461 
     84 H84       -69.6716   29.4682  -73.1577 H         1 UNK         0.3453 
     85 H85       -68.2861   30.0747  -72.2782 H         1 UNK         0.3453 
     86 H86       -72.3587   29.4276  -73.1260 H         1 UNK         0.2984 
     87 H87       -72.8410   28.8213  -75.1198 H         1 UNK         0.0554 
     88 H88       -74.0256   30.7189  -76.2474 H         1 UNK         0.0847 
     89 H89       -73.6097   29.4318  -77.3645 H         1 UNK         0.0847 
     90 H90       -72.6621   30.9211  -77.3390 H         1 UNK         0.0847 
     91 H91       -71.1617   28.8887  -77.3206 H         1 UNK         0.3141 
     92 H92       -68.8966   28.1418  -77.4241 H         1 UNK         0.0743 
     93 H93       -68.1305   26.3418  -75.0541 H         1 UNK         0.0784 
     94 H94       -67.2217   26.5227  -76.5534 H         1 UNK         0.0784 
     95 H95       -67.3853   27.8832  -75.4542 H         1 UNK         0.0784 
     96 H96       -70.0084   25.5356  -76.4776 H         1 UNK         0.3213 
     97 H97       -72.2225   25.3017  -79.2337 H         1 UNK         0.0855 
     98 H98       -69.9457   23.4798  -78.2709 H         1 UNK         0.0814 
     99 H99       -70.1651   24.0568  -79.9166 H         1 UNK         0.0814 
    100 H100      -71.3534   22.9774  -79.2078 H         1 UNK         0.0814 
    101 H101      -71.9570   23.7994  -76.8128 H         1 UNK         0.3105 
    102 H102      -73.6763   23.9022  -75.2875 H         1 UNK         0.0547 
    103 H103      -71.6781   25.0521  -74.3121 H         1 UNK         0.0837 
    104 H104      -72.5978   26.5346  -74.1215 H         1 UNK         0.0837 
    105 H105      -73.0245   25.0998  -73.1893 H         1 UNK         0.0837 
    106 H106      -75.0294   26.2842  -74.3621 H         1 UNK         0.3020 
    107 H107      -77.2436   26.3311  -74.2684 H         1 UNK         0.1245 
    108 H108      -78.7921   27.3174  -75.9536 H         1 UNK         0.0781 
    109 H109      -78.0786   26.3555  -77.2150 H         1 UNK         0.0781 
    110 H110      -78.3735   29.7755  -76.1761 H         1 UNK         0.0836 
    111 H111      -76.7908   30.5050  -76.0963 H         1 UNK         0.0836 
    112 H112      -79.1937   24.7789  -75.6847 H         1 UNK         0.3022 
    113 H113      -78.9496   21.8162  -74.2409 H         1 UNK         0.0747 
    114 H114      -80.8838   21.7482  -72.7099 H         1 UNK         0.0793 
    115 H115      -79.4851   22.4291  -71.9003 H         1 UNK         0.0793 
    116 H116      -80.7803   23.4826  -72.4430 H         1 UNK         0.0793 
    117 H117      -81.3279   23.4382  -74.8682 H         1 UNK         0.3047 
    118 H118      -80.9614   23.0928  -78.3387 H         1 UNK         0.0822 
    119 H119      -83.0926   21.8187  -78.4143 H         1 UNK         0.0807 
    120 H120      -82.8967   21.3390  -76.7273 H         1 UNK         0.0807 
    121 H121      -81.7743   20.7578  -77.9493 H         1 UNK         0.0807 
    122 H122      -83.2518   23.7957  -76.8037 H         1 UNK         0.2946 
    123 H123      -82.7026   27.1763  -76.9639 H         1 UNK         0.1144 
    124 H124      -84.9985   26.6823  -76.2194 H         1 UNK         0.0793 
    125 H125      -84.5853   25.0167  -75.8471 H         1 UNK         0.0793 
    126 H126      -84.5649   25.5869  -77.5158 H         1 UNK         0.0793 
    127 H127      -82.4157   27.6745  -74.8146 H         1 UNK         0.2896 
@<TRIPOS>BOND
     1    1    2 1    
     2    1   67 1    
     3    1   68 1    
     4    1   69 1    
     5    2    3 2    
     6    2    4 am   BACKBONE|DICT|INTERRES
     7    4    5 1    
     8    4   70 1    
     9    5    6 1    
    10    5   65 1    
    11    5   71 1    
    12    6    7 1    
    13    6   72 1    
    14    6   73 1    
    15    7    8 1    
    16    8    9 1    
    17    8   74 1    
    18    8   75 1    
    19    9   10 ar   
    20    9   14 ar   
    21   10   11 ar   
    22   10   76 1    
    23   11   12 ar   
    24   11   48 1    
    25   12   13 ar   
    26   12   77 1    
    27   13   14 ar   
    28   13   15 1    
    29   14   78 1    
    30   15   16 1    
    31   15   79 1    
    32   15   80 1    
    33   16   17 1    
    34   17   18 1    
    35   17   81 1    
    36   17   82 1    
    37   18   19 1    
    38   18   22 1    
    39   18   83 1    
    40   19   20 am   BACKBONE|DICT|INTERRES
    41   19   21 2    
    42   20   84 1    
    43   20   85 1    
    44   22   23 am   BACKBONE|DICT|INTERRES
    45   22   86 1    
    46   23   24 2    
    47   23   25 1    
    48   25   26 1    
    49   25   27 1    
    50   25   87 1    
    51   26   88 1    
    52   26   89 1    
    53   26   90 1    
    54   27   28 am   BACKBONE|DICT|INTERRES
    55   27   91 1    
    56   28   29 2    
    57   28   30 1    
    58   30   31 1    
    59   30   32 1    
    60   30   92 1    
    61   31   93 1    
    62   31   94 1    
    63   31   95 1    
    64   32   33 am   BACKBONE|DICT|INTERRES
    65   32   96 1    
    66   33   34 2    
    67   33   35 1    
    68   35   36 1    
    69   35   37 1    
    70   35   97 1    
    71   36   98 1    
    72   36   99 1    
    73   36  100 1    
    74   37   38 am   BACKBONE|DICT|INTERRES
    75   37  101 1    
    76   38   39 2    
    77   38   40 1    
    78   40   41 1    
    79   40   42 1    
    80   40  102 1    
    81   41  103 1    
    82   41  104 1    
    83   41  105 1    
    84   42   43 am   BACKBONE|DICT|INTERRES
    85   42  106 1    
    86   43   44 2    
    87   43   45 1    
    88   45   46 1    
    89   45   49 1    
    90   45  107 1    
    91   46   47 1    
    92   46  108 1    
    93   46  109 1    
    94   47   48 1    
    95   48  110 1    
    96   48  111 1    
    97   49   50 am   BACKBONE|DICT|INTERRES
    98   49  112 1    
    99   50   51 2    
   100   50   52 1    
   101   52   53 1    
   102   52   54 1    
   103   52  113 1    
   104   53  114 1    
   105   53  115 1    
   106   53  116 1    
   107   54   55 am   BACKBONE|DICT|INTERRES
   108   54  117 1    
   109   55   56 2    
   110   55   57 1    
   111   57   58 1    
   112   57   59 1    
   113   57  118 1    
   114   58  119 1    
   115   58  120 1    
   116   58  121 1    
   117   59   60 am   BACKBONE|DICT|INTERRES
   118   59  122 1    
   119   60   61 2    
   120   60   62 1    
   121   62   63 1    
   122   62   64 1    
   123   62  123 1    
   124   63  124 1    
   125   63  125 1    
   126   63  126 1    
   127   64   65 am   BACKBONE|DICT|INTERRES
   128   64  127 1    
   129   65   66 2    
@<TRIPOS>SUBSTRUCTURE
     1 UNK         1 GROUP             0       ****    0 ROOT    
