@<TRIPOS>MOLECULE
3R135
127   129    1
SMALL
USER_CHARGES


@<TRIPOS>ATOM
      1 CA        -82.8257   24.4862  -68.9394 C.3       0 UNK        -0.1998 
      2 C         -82.6317   25.4467  -70.1028 C.2       0 UNK         0.4909 
      3 O         -83.5321   26.2288  -70.4087 O.2       0 UNK        -0.5240 
      4 N         -81.4634   25.3932  -70.7563 N.am      1 UNK        -0.4739 
      5 CA        -81.0982   26.2582  -71.8874 C.3       1 UNK         0.0864 
      6 C6        -79.5682   26.2944  -72.1206 C.3       11 UNK        -0.0881 
      7 S7        -78.5955   26.8052  -70.6635 S.3       11 UNK        -0.2682 
      8 C8        -78.9840   28.5802  -70.5221 C.3       11 UNK         0.0289 
      9 C9        -78.4988   29.3910  -71.7161 C.ar      11 UNK        -0.0687 
     10 C10       -79.3683   29.6711  -72.7745 C.ar      11 UNK        -0.0823 
     11 C11       -78.9419   30.4398  -73.8603 C.ar      11 UNK        -0.0830 
     12 C12       -77.6436   30.9566  -73.8682 C.ar      11 UNK        -0.1021 
     13 C13       -76.7601   30.6768  -72.8215 C.ar      11 UNK        -0.0753 
     14 C14       -77.1925   29.8892  -71.7491 C.ar      11 UNK        -0.0933 
     15 C15       -75.3489   31.2494  -72.8390 C.3       11 UNK         0.0166 
     16 S16       -74.3797   30.6874  -74.2755 S.3       11 UNK        -0.2615 
     17 C17       -74.1191   28.9257  -73.8777 C.3       11 UNK        -0.0865 
     18 CA        -72.8047   28.6752  -73.0956 C.3       10 UNK         0.0862 
     19 C         -72.7044   27.1982  -72.6099 C.2       10 UNK         0.5551 
     20 N         -71.6971   26.4246  -73.0014 N.am      10 UNK        -0.7319 
     21 O         -73.5458   26.7536  -71.8336 O.2       10 UNK        -0.5018 
     22 N         -71.6309   29.1443  -73.8468 N.am      10 UNK        -0.4509 
     23 C         -70.4578   29.4842  -73.2975 C.2       10 UNK         0.4899 
     24 O         -70.2656   29.5356  -72.0814 O.2       10 UNK        -0.4839 
     25 CA        -69.3046   29.8213  -74.2694 C.3       9 UNK         0.0222 
     26 CB        -67.9151   29.5875  -73.6382 C.3       9 UNK        -0.1966 
     27 N         -69.3989   29.1379  -75.5688 N.am      9 UNK        -0.4218 
     28 C         -69.4633   27.8150  -75.7786 C.2       9 UNK         0.5020 
     29 O         -69.4335   26.9654  -74.8841 O.2       9 UNK        -0.5274 
     30 CA        -69.6066   27.3643  -77.2408 C.3       8 UNK         0.0270 
     31 CB        -68.2743   26.8093  -77.7704 C.3       8 UNK        -0.1976 
     32 N         -70.6488   26.3453  -77.3775 N.am      8 UNK        -0.4313 
     33 C         -71.9519   26.5583  -77.1535 C.2       8 UNK         0.5041 
     34 O         -72.4255   27.6583  -76.8554 O.2       8 UNK        -0.5577 
     35 CA        -72.8607   25.3227  -77.2486 C.3       7 UNK         0.0284 
     36 CB        -72.8775   24.5598  -75.9139 C.3       7 UNK        -0.1958 
     37 N         -74.2292   25.6907  -77.6186 N.am      7 UNK        -0.4454 
     38 C         -74.6178   25.9500  -78.8759 C.2       7 UNK         0.5089 
     39 O         -73.8558   25.8862  -79.8425 O.2       7 UNK        -0.5125 
     40 CA        -76.0971   26.3029  -79.1315 C.3       6 UNK         0.0408 
     41 CB        -76.7789   25.1927  -79.9488 C.3       6 UNK        -0.1791 
     42 N         -76.8713   26.5235  -77.9091 N.am      6 UNK        -0.4762 
     43 C         -76.9101   27.6799  -77.2280 C.2       6 UNK         0.5007 
     44 O         -76.3055   28.6922  -77.5815 O.2       6 UNK        -0.5032 
     45 CA        -77.7378   27.6964  -75.9173 C.3       5 UNK         0.0783 
     46 C46       -79.1871   28.1951  -76.1599 C.3       11 UNK        -0.0857 
     47 S47       -79.2886   29.9704  -76.5794 S.3       11 UNK        -0.2512 
     48 C48       -79.8849   30.7100  -75.0241 C.3       11 UNK         0.0225 
     49 N         -77.7466   26.3859  -75.2527 N.am      5 UNK        -0.4615 
     50 C         -76.6538   25.7304  -74.8373 C.2       4 UNK         0.5053 
     51 O         -75.5312   26.2252  -74.8530 O.2       4 UNK        -0.5105 
     52 CA        -76.8004   24.2562  -74.4159 C.3       4 UNK         0.0263 
     53 CB        -76.4404   24.0591  -72.9337 C.3       4 UNK        -0.1981 
     54 N         -78.1012   23.6383  -74.7136 N.am      4 UNK        -0.4224 
     55 C         -78.5748   23.4236  -75.9527 C.2       3 UNK         0.4895 
     56 O         -78.0218   23.8372  -76.9725 O.2       3 UNK        -0.5091 
     57 CA        -79.8856   22.6377  -76.0788 C.3       3 UNK         0.0250 
     58 CB        -79.6512   21.1431  -75.7998 C.3       3 UNK        -0.1996 
     59 N         -80.9194   23.1519  -75.1751 N.am      3 UNK        -0.4254 
     60 C         -82.0695   23.7140  -75.5739 C.2       2 UNK         0.5004 
     61 O         -82.3800   23.8946  -76.7518 O.2       2 UNK        -0.5226 
     62 CA        -83.0504   24.1401  -74.4680 C.3       2 UNK         0.0269 
     63 CB        -83.9565   22.9644  -74.0671 C.3       2 UNK        -0.1926 
     64 N         -82.3760   24.6618  -73.2763 N.am      2 UNK        -0.4687 
     65 C         -81.8082   25.8746  -73.2034 C.2       1 UNK         0.5165 
     66 O         -81.8085   26.6778  -74.1362 O.2       1 UNK        -0.5079 
     67 H67       -81.9505   23.8566  -68.7798 H         1 UNK         0.0900 
     68 H68       -83.0143   25.0427  -68.0217 H         1 UNK         0.0900 
     69 H69       -83.6810   23.8376  -69.1267 H         1 UNK         0.0900 
     70 H70       -80.7461   24.7537  -70.4441 H         1 UNK         0.2959 
     71 H71       -81.4326   27.2704  -71.6529 H         1 UNK         0.1079 
     72 H72       -79.3104   26.9503  -72.9523 H         1 UNK         0.0837 
     73 H73       -79.2259   25.3026  -72.4139 H         1 UNK         0.0837 
     74 H74       -80.0575   28.7111  -70.3815 H         1 UNK         0.0685 
     75 H75       -78.5189   28.9625  -69.6122 H         1 UNK         0.0685 
     76 H76       -80.3780   29.2848  -72.7556 H         1 UNK         0.1434 
     77 H77       -77.3121   31.5603  -74.7024 H         1 UNK         0.1329 
     78 H78       -76.5184   29.6732  -70.9314 H         1 UNK         0.1335 
     79 H79       -75.4131   32.3379  -72.8658 H         1 UNK         0.0680 
     80 H80       -74.8104   30.9966  -71.9242 H         1 UNK         0.0680 
     81 H81       -74.9828   28.5486  -73.3267 H         1 UNK         0.1032 
     82 H82       -74.1021   28.3727  -74.8183 H         1 UNK         0.1032 
     83 H83       -72.8643   29.2713  -72.1830 H         1 UNK         0.0461 
     84 H84       -71.6463   25.4795  -72.6586 H         1 UNK         0.3453 
     85 H85       -70.9788   26.7712  -73.6284 H         1 UNK         0.3453 
     86 H86       -71.7091   29.1002  -74.8537 H         1 UNK         0.2984 
     87 H87       -69.3948   30.8877  -74.4808 H         1 UNK         0.0554 
     88 H88       -67.7801   30.1996  -72.7456 H         1 UNK         0.0847 
     89 H89       -67.1147   29.8488  -74.3303 H         1 UNK         0.0847 
     90 H90       -67.7763   28.5470  -73.3423 H         1 UNK         0.0847 
     91 H91       -69.4526   29.7474  -76.3740 H         1 UNK         0.3141 
     92 H92       -69.8935   28.2208  -77.8548 H         1 UNK         0.0743 
     93 H93       -67.9451   25.9382  -77.2020 H         1 UNK         0.0784 
     94 H94       -68.3525   26.5181  -78.8181 H         1 UNK         0.0784 
     95 H95       -67.4850   27.5592  -77.7017 H         1 UNK         0.0784 
     96 H96       -70.3352   25.4054  -77.5717 H         1 UNK         0.3213 
     97 H97       -72.4624   24.6545  -78.0157 H         1 UNK         0.0855 
     98 H98       -73.1970   25.1965  -75.0895 H         1 UNK         0.0814 
     99 H99       -71.8829   24.1893  -75.6631 H         1 UNK         0.0814 
    100 H100      -73.5445   23.6987  -75.9530 H         1 UNK         0.0814 
    101 H101      -74.8718   25.8671  -76.8557 H         1 UNK         0.3105 
    102 H102      -76.1135   27.2162  -79.7300 H         1 UNK         0.0547 
    103 H103      -77.8144   25.4451  -80.1770 H         1 UNK         0.0837 
    104 H104      -76.7750   24.2404  -79.4169 H         1 UNK         0.0837 
    105 H105      -76.2685   25.0359  -80.9000 H         1 UNK         0.0837 
    106 H106      -77.3657   25.7162  -77.5406 H         1 UNK         0.3020 
    107 H107      -77.2394   28.3904  -75.2361 H         1 UNK         0.1245 
    108 H108      -79.7940   28.0230  -75.2707 H         1 UNK         0.0781 
    109 H109      -79.6663   27.6213  -76.9555 H         1 UNK         0.0781 
    110 H110      -80.8871   30.3329  -74.8137 H         1 UNK         0.0836 
    111 H111      -79.9855   31.7877  -75.1600 H         1 UNK         0.0836 
    112 H112      -78.6273   25.8948  -75.2406 H         1 UNK         0.3022 
    113 H113      -76.0569   23.7082  -74.9990 H         1 UNK         0.0747 
    114 H114      -76.4537   23.0051  -72.6561 H         1 UNK         0.0793 
    115 H115      -75.4346   24.4305  -72.7289 H         1 UNK         0.0793 
    116 H116      -77.1140   24.5929  -72.2669 H         1 UNK         0.0793 
    117 H117      -78.5990   23.2495  -73.9278 H         1 UNK         0.3047 
    118 H118      -80.2100   22.7294  -77.1179 H         1 UNK         0.0822 
    119 H119      -80.5576   20.5639  -75.9773 H         1 UNK         0.0807 
    120 H120      -79.3359   20.9606  -74.7719 H         1 UNK         0.0807 
    121 H121      -78.8780   20.7398  -76.4554 H         1 UNK         0.0807 
    122 H122      -80.7693   23.0431  -74.1835 H         1 UNK         0.2946 
    123 H123      -83.6827   24.9305  -74.8802 H         1 UNK         0.1144 
    124 H124      -83.3874   22.1413  -73.6331 H         1 UNK         0.0793 
    125 H125      -84.4897   22.5704  -74.9336 H         1 UNK         0.0793 
    126 H126      -84.7079   23.2736  -73.3402 H         1 UNK         0.0793 
    127 H127      -82.3517   24.0709  -72.4577 H         1 UNK         0.2896 
@<TRIPOS>BOND
     1    1    2 1    
     2    1   67 1    
     3    1   68 1    
     4    1   69 1    
     5    2    3 2    
     6    2    4 am   BACKBONE|DICT|INTERRES
     7    4    5 1    
     8    4   70 1    
     9    5    6 1    
    10    5   65 1    
    11    5   71 1    
    12    6    7 1    
    13    6   72 1    
    14    6   73 1    
    15    7    8 1    
    16    8    9 1    
    17    8   74 1    
    18    8   75 1    
    19    9   10 ar   
    20    9   14 ar   
    21   10   11 ar   
    22   10   76 1    
    23   11   12 ar   
    24   11   48 1    
    25   12   13 ar   
    26   12   77 1    
    27   13   14 ar   
    28   13   15 1    
    29   14   78 1    
    30   15   16 1    
    31   15   79 1    
    32   15   80 1    
    33   16   17 1    
    34   17   18 1    
    35   17   81 1    
    36   17   82 1    
    37   18   19 1    
    38   18   22 1    
    39   18   83 1    
    40   19   20 am   BACKBONE|DICT|INTERRES
    41   19   21 2    
    42   20   84 1    
    43   20   85 1    
    44   22   23 am   BACKBONE|DICT|INTERRES
    45   22   86 1    
    46   23   24 2    
    47   23   25 1    
    48   25   26 1    
    49   25   27 1    
    50   25   87 1    
    51   26   88 1    
    52   26   89 1    
    53   26   90 1    
    54   27   28 am   BACKBONE|DICT|INTERRES
    55   27   91 1    
    56   28   29 2    
    57   28   30 1    
    58   30   31 1    
    59   30   32 1    
    60   30   92 1    
    61   31   93 1    
    62   31   94 1    
    63   31   95 1    
    64   32   33 am   BACKBONE|DICT|INTERRES
    65   32   96 1    
    66   33   34 2    
    67   33   35 1    
    68   35   36 1    
    69   35   37 1    
    70   35   97 1    
    71   36   98 1    
    72   36   99 1    
    73   36  100 1    
    74   37   38 am   BACKBONE|DICT|INTERRES
    75   37  101 1    
    76   38   39 2    
    77   38   40 1    
    78   40   41 1    
    79   40   42 1    
    80   40  102 1    
    81   41  103 1    
    82   41  104 1    
    83   41  105 1    
    84   42   43 am   BACKBONE|DICT|INTERRES
    85   42  106 1    
    86   43   44 2    
    87   43   45 1    
    88   45   46 1    
    89   45   49 1    
    90   45  107 1    
    91   46   47 1    
    92   46  108 1    
    93   46  109 1    
    94   47   48 1    
    95   48  110 1    
    96   48  111 1    
    97   49   50 am   BACKBONE|DICT|INTERRES
    98   49  112 1    
    99   50   51 2    
   100   50   52 1    
   101   52   53 1    
   102   52   54 1    
   103   52  113 1    
   104   53  114 1    
   105   53  115 1    
   106   53  116 1    
   107   54   55 am   BACKBONE|DICT|INTERRES
   108   54  117 1    
   109   55   56 2    
   110   55   57 1    
   111   57   58 1    
   112   57   59 1    
   113   57  118 1    
   114   58  119 1    
   115   58  120 1    
   116   58  121 1    
   117   59   60 am   BACKBONE|DICT|INTERRES
   118   59  122 1    
   119   60   61 2    
   120   60   62 1    
   121   62   63 1    
   122   62   64 1    
   123   62  123 1    
   124   63  124 1    
   125   63  125 1    
   126   63  126 1    
   127   64   65 am   BACKBONE|DICT|INTERRES
   128   64  127 1    
   129   65   66 2    
@<TRIPOS>SUBSTRUCTURE
     1 UNK         1 GROUP             0       ****    0 ROOT    
