@<TRIPOS>MOLECULE
3R135
127   129    1
SMALL
USER_CHARGES


@<TRIPOS>ATOM
      1 CA        -84.7097   29.4524  -71.9937 C.3       0 UNK        -0.1998 
      2 C         -83.7716   29.5760  -73.1850 C.2       0 UNK         0.4909 
      3 O         -84.2270   29.8479  -74.2963 O.2       0 UNK        -0.5240 
      4 N         -82.4646   29.3828  -72.9606 N.am      1 UNK        -0.4739 
      5 CA        -81.4202   29.4282  -73.9924 C.3       1 UNK         0.0864 
      6 C6        -80.0152   29.5237  -73.3470 C.3       11 UNK        -0.0881 
      7 S7        -78.7183   30.0980  -74.4968 S.3       11 UNK        -0.2682 
      8 C8        -77.8659   28.5414  -74.9094 C.3       11 UNK         0.0289 
      9 C9        -77.0035   28.0370  -73.7620 C.ar      11 UNK        -0.0687 
     10 C10       -77.4707   27.0337  -72.9082 C.ar      11 UNK        -0.0823 
     11 C11       -76.6664   26.5450  -71.8730 C.ar      11 UNK        -0.0830 
     12 C12       -75.3796   27.0672  -71.7017 C.ar      11 UNK        -0.1021 
     13 C13       -74.9017   28.0696  -72.5514 C.ar      11 UNK        -0.0753 
     14 C14       -75.7216   28.5566  -73.5713 C.ar      11 UNK        -0.0933 
     15 C15       -73.4950   28.6182  -72.3866 C.3       11 UNK         0.0166 
     16 S16       -73.4935   30.1261  -71.3763 S.3       11 UNK        -0.2615 
     17 C17       -71.7418   30.6196  -71.5077 C.3       11 UNK        -0.0865 
     18 CA        -71.5595   31.9706  -72.2469 C.3       10 UNK         0.0862 
     19 C         -70.0925   32.4786  -72.1232 C.2       10 UNK         0.5551 
     20 N         -69.3475   32.6401  -73.2105 N.am      10 UNK        -0.7319 
     21 O         -69.6251   32.7390  -71.0172 O.2       10 UNK        -0.5018 
     22 N         -72.0633   31.9214  -73.6316 N.am      10 UNK        -0.4509 
     23 C         -72.4909   32.9842  -74.3212 C.2       10 UNK         0.4899 
     24 O         -72.5927   34.1111  -73.8348 O.2       10 UNK        -0.4839 
     25 CA        -72.8610   32.7917  -75.8056 C.3       9 UNK         0.0222 
     26 CB        -71.6529   33.1168  -76.7065 C.3       9 UNK        -0.1966 
     27 N         -73.4624   31.5009  -76.1816 N.am      9 UNK        -0.4218 
     28 C         -72.9171   30.2773  -76.1631 C.2       9 UNK         0.5020 
     29 O         -71.8063   30.0157  -75.6916 O.2       9 UNK        -0.5274 
     30 CA        -73.7526   29.1582  -76.7965 C.3       8 UNK         0.0270 
     31 CB        -73.7396   29.2601  -78.3338 C.3       8 UNK        -0.1976 
     32 N         -73.1980   27.8741  -76.3815 N.am      8 UNK        -0.4313 
     33 C         -73.8603   26.7155  -76.3366 C.2       8 UNK         0.5041 
     34 O         -75.0474   26.5842  -76.6500 O.2       8 UNK        -0.5577 
     35 CA        -73.0592   25.4974  -75.8609 C.3       7 UNK         0.0284 
     36 CB        -72.8059   25.5471  -74.3429 C.3       7 UNK        -0.1958 
     37 N         -73.8154   24.2940  -76.1840 N.am      7 UNK        -0.4454 
     38 C         -73.3081   23.0857  -76.4485 C.2       7 UNK         0.5089 
     39 O         -72.1006   22.8395  -76.4785 O.2       7 UNK        -0.5125 
     40 CA        -74.3428   21.9685  -76.6949 C.3       6 UNK         0.0408 
     41 CB        -73.7161   20.5601  -76.7689 C.3       6 UNK        -0.1791 
     42 N         -75.4367   22.0132  -75.7154 N.am      6 UNK        -0.4762 
     43 C         -75.3333   21.8878  -74.3795 C.2       6 UNK         0.5007 
     44 O         -74.2878   21.5980  -73.7965 O.2       6 UNK        -0.5032 
     45 CA        -76.5946   22.1739  -73.5350 C.3       5 UNK         0.0783 
     46 C46       -76.4647   23.5787  -72.8999 C.3       11 UNK        -0.0857 
     47 S47       -77.8626   24.0083  -71.8135 S.3       11 UNK        -0.2512 
     48 C48       -77.1818   25.4564  -70.9355 C.3       11 UNK         0.0225 
     49 N         -77.8367   22.0367  -74.3029 N.am      5 UNK        -0.4615 
     50 C         -78.3214   20.8841  -74.7829 C.2       4 UNK         0.5053 
     51 O         -77.8226   19.7844  -74.5426 O.2       4 UNK        -0.5105 
     52 CA        -79.5550   20.9610  -75.7041 C.3       4 UNK         0.0263 
     53 CB        -80.8200   20.5450  -74.9356 C.3       4 UNK        -0.1981 
     54 N         -79.7892   22.2704  -76.3259 N.am      4 UNK        -0.4224 
     55 C         -78.9376   22.9515  -77.1084 C.2       3 UNK         0.4895 
     56 O         -77.8083   22.5532  -77.3961 O.2       3 UNK        -0.5091 
     57 CA        -79.4101   24.3136  -77.6526 C.3       3 UNK         0.0250 
     58 CB        -79.6700   24.2247  -79.1654 C.3       3 UNK        -0.1996 
     59 N         -80.6091   24.8456  -76.9921 N.am      3 UNK        -0.4254 
     60 C         -80.6441   25.3140  -75.7374 C.2       2 UNK         0.5004 
     61 O         -79.6743   25.3104  -74.9777 O.2       2 UNK        -0.5226 
     62 CA        -82.0058   25.8166  -75.2294 C.3       2 UNK         0.0269 
     63 CB        -82.6772   24.7453  -74.3542 C.3       2 UNK        -0.1926 
     64 N         -81.8765   27.0541  -74.4578 N.am      2 UNK        -0.4687 
     65 C         -81.5278   28.2411  -74.9768 C.2       1 UNK         0.5165 
     66 O         -81.3270   28.4241  -76.1788 O.2       1 UNK        -0.5079 
     67 H67       -84.1737   29.2184  -71.0741 H         1 UNK         0.0900 
     68 H68       -85.2493   30.3870  -71.8428 H         1 UNK         0.0900 
     69 H69       -85.4390   28.6625  -72.1713 H         1 UNK         0.0900 
     70 H70       -82.1516   29.1730  -72.0231 H         1 UNK         0.2959 
     71 H71       -81.5865   30.3385  -74.5737 H         1 UNK         0.1079 
     72 H72       -79.7341   28.5795  -72.8818 H         1 UNK         0.0837 
     73 H73       -80.0381   30.2501  -72.5330 H         1 UNK         0.0837 
     74 H74       -77.2381   28.7060  -75.7864 H         1 UNK         0.0685 
     75 H75       -78.5943   27.7856  -75.2038 H         1 UNK         0.0685 
     76 H76       -78.4580   26.6186  -73.0572 H         1 UNK         0.1434 
     77 H77       -74.7463   26.6942  -70.9084 H         1 UNK         0.1329 
     78 H78       -75.3590   29.3404  -74.2195 H         1 UNK         0.1335 
     79 H79       -72.8483   27.8711  -71.9236 H         1 UNK         0.0680 
     80 H80       -73.0670   28.8355  -73.3660 H         1 UNK         0.0680 
     81 H81       -71.1615   29.8358  -71.9981 H         1 UNK         0.1032 
     82 H82       -71.3520   30.6859  -70.4899 H         1 UNK         0.1032 
     83 H83       -72.1613   32.7045  -71.7069 H         1 UNK         0.0461 
     84 H84       -68.4010   32.9737  -73.1172 H         1 UNK         0.3453 
     85 H85       -69.7211   32.4231  -74.1201 H         1 UNK         0.3453 
     86 H86       -71.9497   31.0478  -74.1377 H         1 UNK         0.2984 
     87 H87       -73.6304   33.5351  -76.0205 H         1 UNK         0.0554 
     88 H88       -71.2599   34.1112  -76.4897 H         1 UNK         0.0847 
     89 H89       -71.9294   33.1030  -77.7608 H         1 UNK         0.0847 
     90 H90       -70.8357   32.4087  -76.5661 H         1 UNK         0.0847 
     91 H91       -74.3989   31.5774  -76.5549 H         1 UNK         0.3141 
     92 H92       -74.7796   29.2431  -76.4378 H         1 UNK         0.0743 
     93 H93       -74.1509   30.2118  -78.6725 H         1 UNK         0.0784 
     94 H94       -74.3403   28.4722  -78.7888 H         1 UNK         0.0784 
     95 H95       -72.7275   29.1806  -78.7329 H         1 UNK         0.0784 
     96 H96       -72.2390   27.9324  -76.0580 H         1 UNK         0.3213 
     97 H97       -72.1067   25.4844  -76.3955 H         1 UNK         0.0855 
     98 H98       -73.7412   25.5896  -73.7832 H         1 UNK         0.0814 
     99 H99       -72.2162   26.4219  -74.0684 H         1 UNK         0.0814 
    100 H100      -72.2558   24.6693  -74.0034 H         1 UNK         0.0814 
    101 H101      -74.8138   24.4471  -76.2610 H         1 UNK         0.3105 
    102 H102      -74.7952   22.1778  -77.6654 H         1 UNK         0.0547 
    103 H103      -74.4743   19.7981  -76.9487 H         1 UNK         0.0837 
    104 H104      -73.1885   20.2990  -75.8512 H         1 UNK         0.0837 
    105 H105      -72.9948   20.4983  -77.5845 H         1 UNK         0.0837 
    106 H106      -76.3492   22.2326  -76.1073 H         1 UNK         0.3020 
    107 H107      -76.6148   21.4324  -72.7330 H         1 UNK         0.1245 
    108 H108      -76.3898   24.3427  -73.6771 H         1 UNK         0.0781 
    109 H109      -75.5467   23.6483  -72.3122 H         1 UNK         0.0781 
    110 H110      -76.3894   25.1149  -70.2676 H         1 UNK         0.0836 
    111 H111      -77.9593   25.8794  -70.2983 H         1 UNK         0.0836 
    112 H112      -78.3268   22.8953  -74.5136 H         1 UNK         0.3022 
    113 H113      -79.3923   20.2452  -76.5123 H         1 UNK         0.0747 
    114 H114      -81.6863   20.4875  -75.5950 H         1 UNK         0.0793 
    115 H115      -80.6967   19.5604  -74.4819 H         1 UNK         0.0793 
    116 H116      -81.0525   21.2464  -74.1330 H         1 UNK         0.0793 
    117 H117      -80.6888   22.6912  -76.1496 H         1 UNK         0.3047 
    118 H118      -78.5941   25.0211  -77.4876 H         1 UNK         0.0822 
    119 H119      -79.9208   25.1999  -79.5835 H         1 UNK         0.0807 
    120 H120      -80.4858   23.5385  -79.3962 H         1 UNK         0.0807 
    121 H121      -78.7849   23.8675  -79.6940 H         1 UNK         0.0807 
    122 H122      -81.4522   24.8716  -77.5484 H         1 UNK         0.2946 
    123 H123      -82.6517   26.0222  -76.0864 H         1 UNK         0.1144 
    124 H124      -83.6571   25.0731  -74.0064 H         1 UNK         0.0793 
    125 H125      -82.0732   24.5035  -73.4783 H         1 UNK         0.0793 
    126 H126      -82.8270   23.8199  -74.9119 H         1 UNK         0.0793 
    127 H127      -82.0165   26.9867  -73.4607 H         1 UNK         0.2896 
@<TRIPOS>BOND
     1    1    2 1    
     2    1   67 1    
     3    1   68 1    
     4    1   69 1    
     5    2    3 2    
     6    2    4 am   BACKBONE|DICT|INTERRES
     7    4    5 1    
     8    4   70 1    
     9    5    6 1    
    10    5   65 1    
    11    5   71 1    
    12    6    7 1    
    13    6   72 1    
    14    6   73 1    
    15    7    8 1    
    16    8    9 1    
    17    8   74 1    
    18    8   75 1    
    19    9   10 ar   
    20    9   14 ar   
    21   10   11 ar   
    22   10   76 1    
    23   11   12 ar   
    24   11   48 1    
    25   12   13 ar   
    26   12   77 1    
    27   13   14 ar   
    28   13   15 1    
    29   14   78 1    
    30   15   16 1    
    31   15   79 1    
    32   15   80 1    
    33   16   17 1    
    34   17   18 1    
    35   17   81 1    
    36   17   82 1    
    37   18   19 1    
    38   18   22 1    
    39   18   83 1    
    40   19   20 am   BACKBONE|DICT|INTERRES
    41   19   21 2    
    42   20   84 1    
    43   20   85 1    
    44   22   23 am   BACKBONE|DICT|INTERRES
    45   22   86 1    
    46   23   24 2    
    47   23   25 1    
    48   25   26 1    
    49   25   27 1    
    50   25   87 1    
    51   26   88 1    
    52   26   89 1    
    53   26   90 1    
    54   27   28 am   BACKBONE|DICT|INTERRES
    55   27   91 1    
    56   28   29 2    
    57   28   30 1    
    58   30   31 1    
    59   30   32 1    
    60   30   92 1    
    61   31   93 1    
    62   31   94 1    
    63   31   95 1    
    64   32   33 am   BACKBONE|DICT|INTERRES
    65   32   96 1    
    66   33   34 2    
    67   33   35 1    
    68   35   36 1    
    69   35   37 1    
    70   35   97 1    
    71   36   98 1    
    72   36   99 1    
    73   36  100 1    
    74   37   38 am   BACKBONE|DICT|INTERRES
    75   37  101 1    
    76   38   39 2    
    77   38   40 1    
    78   40   41 1    
    79   40   42 1    
    80   40  102 1    
    81   41  103 1    
    82   41  104 1    
    83   41  105 1    
    84   42   43 am   BACKBONE|DICT|INTERRES
    85   42  106 1    
    86   43   44 2    
    87   43   45 1    
    88   45   46 1    
    89   45   49 1    
    90   45  107 1    
    91   46   47 1    
    92   46  108 1    
    93   46  109 1    
    94   47   48 1    
    95   48  110 1    
    96   48  111 1    
    97   49   50 am   BACKBONE|DICT|INTERRES
    98   49  112 1    
    99   50   51 2    
   100   50   52 1    
   101   52   53 1    
   102   52   54 1    
   103   52  113 1    
   104   53  114 1    
   105   53  115 1    
   106   53  116 1    
   107   54   55 am   BACKBONE|DICT|INTERRES
   108   54  117 1    
   109   55   56 2    
   110   55   57 1    
   111   57   58 1    
   112   57   59 1    
   113   57  118 1    
   114   58  119 1    
   115   58  120 1    
   116   58  121 1    
   117   59   60 am   BACKBONE|DICT|INTERRES
   118   59  122 1    
   119   60   61 2    
   120   60   62 1    
   121   62   63 1    
   122   62   64 1    
   123   62  123 1    
   124   63  124 1    
   125   63  125 1    
   126   63  126 1    
   127   64   65 am   BACKBONE|DICT|INTERRES
   128   64  127 1    
   129   65   66 2    
@<TRIPOS>SUBSTRUCTURE
     1 UNK         1 GROUP             0       ****    0 ROOT    
