@<TRIPOS>MOLECULE
3R135
127   129    1
SMALL
USER_CHARGES


@<TRIPOS>ATOM
      1 CA        -77.2286   28.1836  -71.0139 C.3       0 UNK        -0.1998 
      2 C         -78.7070   27.9004  -70.8028 C.2       0 UNK         0.4909 
      3 O         -79.1058   27.5403  -69.6951 O.2       0 UNK        -0.5240 
      4 N         -79.5239   28.0404  -71.8566 N.am      1 UNK        -0.4739 
      5 CA        -80.9674   27.7503  -71.8359 C.3       1 UNK         0.0864 
      6 C6        -81.7161   28.3758  -73.0405 C.3       11 UNK        -0.0881 
      7 S7        -81.5511   30.1895  -73.1343 S.3       11 UNK        -0.2682 
      8 C8        -80.7426   30.4021  -74.7517 C.3       11 UNK         0.0289 
      9 C9        -79.2684   30.0352  -74.6923 C.ar      11 UNK        -0.0687 
     10 C10       -78.8233   28.7855  -75.1372 C.ar      11 UNK        -0.0823 
     11 C11       -77.4670   28.4516  -75.0675 C.ar      11 UNK        -0.0830 
     12 C12       -76.5531   29.3861  -74.5721 C.ar      11 UNK        -0.1021 
     13 C13       -76.9872   30.6412  -74.1358 C.ar      11 UNK        -0.0753 
     14 C14       -78.3455   30.9588  -74.1941 C.ar      11 UNK        -0.0933 
     15 C15       -75.9863   31.6508  -73.6022 C.3       11 UNK         0.0166 
     16 S16       -75.7747   31.4566  -71.8077 S.3       11 UNK        -0.2615 
     17 C17       -74.2845   32.4666  -71.4909 C.3       11 UNK        -0.0865 
     18 CA        -72.9863   31.9225  -72.1510 C.3       10 UNK         0.0862 
     19 C         -71.7424   32.7084  -71.6533 C.2       10 UNK         0.5551 
     20 N         -71.4399   33.8432  -72.2689 N.am      10 UNK        -0.7319 
     21 O         -71.0803   32.3239  -70.6908 O.2       10 UNK        -0.5018 
     22 N         -72.8565   30.4684  -71.9827 N.am      10 UNK        -0.4509 
     23 C         -72.0150   29.6844  -72.6639 C.2       10 UNK         0.4899 
     24 O         -71.2154   30.1071  -73.5026 O.2       10 UNK        -0.4839 
     25 CA        -72.0552   28.1763  -72.3394 C.3       9 UNK         0.0222 
     26 CB        -73.4177   27.6864  -71.7881 C.3       9 UNK        -0.1966 
     27 N         -71.6179   27.3621  -73.4808 N.am      9 UNK        -0.4218 
     28 C         -72.2477   27.2045  -74.6546 C.2       9 UNK         0.5020 
     29 O         -73.3579   27.6728  -74.9165 O.2       9 UNK        -0.5274 
     30 CA        -71.5076   26.3377  -75.6890 C.3       8 UNK         0.0270 
     31 CB        -71.4192   24.8750  -75.2146 C.3       8 UNK        -0.1976 
     32 N         -72.1583   26.3789  -77.0023 N.am      8 UNK        -0.4313 
     33 C         -72.0029   27.3681  -77.8945 C.2       8 UNK         0.5041 
     34 O         -71.2532   28.3294  -77.7120 O.2       8 UNK        -0.5577 
     35 CA        -72.7646   27.2772  -79.2325 C.3       7 UNK         0.0284 
     36 CB        -71.7813   27.0486  -80.3941 C.3       7 UNK        -0.1958 
     37 N         -73.7739   26.2167  -79.2635 N.am      7 UNK        -0.4454 
     38 C         -75.0576   26.3661  -78.9124 C.2       7 UNK         0.5089 
     39 O         -75.5478   27.4333  -78.5439 O.2       7 UNK        -0.5125 
     40 CA        -75.9546   25.1107  -78.9715 C.3       6 UNK         0.0408 
     41 CB        -75.4334   24.0113  -79.9240 C.3       6 UNK        -0.1791 
     42 N         -76.2104   24.5495  -77.6406 N.am      6 UNK        -0.4762 
     43 C         -75.2893   24.1921  -76.7297 C.2       6 UNK         0.5007 
     44 O         -74.0766   24.2601  -76.9266 O.2       6 UNK        -0.5032 
     45 CA        -75.7951   23.6412  -75.3798 C.3       5 UNK         0.0783 
     46 C46       -75.9095   24.7625  -74.3090 C.3       11 UNK        -0.0857 
     47 S47       -77.4391   25.7691  -74.3786 S.3       11 UNK        -0.2512 
     48 C48       -76.9835   27.0917  -75.5453 C.3       11 UNK         0.0225 
     49 N         -77.0292   22.8643  -75.5146 N.am      5 UNK        -0.4615 
     50 C         -77.1721   21.7432  -76.2366 C.2       4 UNK         0.5053 
     51 O         -76.2304   21.1399  -76.7511 O.2       4 UNK        -0.5105 
     52 CA        -78.6038   21.2081  -76.4388 C.3       4 UNK         0.0263 
     53 CB        -78.8133   19.9148  -75.6345 C.3       4 UNK        -0.1981 
     54 N         -79.6565   22.1624  -76.0779 N.am      4 UNK        -0.4224 
     55 C         -79.9014   23.3428  -76.6616 C.2       3 UNK         0.4895 
     56 O         -79.2799   23.7674  -77.6360 O.2       3 UNK        -0.5091 
     57 CA        -80.9610   24.2351  -75.9923 C.3       3 UNK         0.0250 
     58 CB        -82.3910   23.7642  -76.3201 C.3       3 UNK        -0.1996 
     59 N         -80.7500   24.3988  -74.5445 N.am      3 UNK        -0.4254 
     60 C         -80.8510   23.4910  -73.5587 C.2       2 UNK         0.5004 
     61 O         -81.2093   22.3258  -73.7333 O.2       2 UNK        -0.5226 
     62 CA        -80.4226   23.9344  -72.1490 C.3       2 UNK         0.0269 
     63 CB        -79.0906   23.2685  -71.7629 C.3       2 UNK        -0.1926 
     64 N         -80.2741   25.3879  -72.0404 N.am      2 UNK        -0.4687 
     65 C         -81.2764   26.2370  -71.7721 C.2       1 UNK         0.5165 
     66 O         -82.4230   25.8672  -71.5149 O.2       1 UNK        -0.5079 
     67 H67       -77.0190   28.5029  -72.0324 H         1 UNK         0.0900 
     68 H68       -76.6413   27.2878  -70.8146 H         1 UNK         0.0900 
     69 H69       -76.8958   28.9692  -70.3365 H         1 UNK         0.0900 
     70 H70       -79.1543   28.3833  -72.7339 H         1 UNK         0.2959 
     71 H71       -81.3800   28.1866  -70.9233 H         1 UNK         0.1079 
     72 H72       -81.3863   27.9219  -73.9759 H         1 UNK         0.0837 
     73 H73       -82.7852   28.1631  -72.9728 H         1 UNK         0.0837 
     74 H74       -81.2626   29.8125  -75.5085 H         1 UNK         0.0685 
     75 H75       -80.8443   31.4441  -75.0590 H         1 UNK         0.0685 
     76 H76       -79.5288   28.0690  -75.5346 H         1 UNK         0.1434 
     77 H77       -75.5018   29.1360  -74.5205 H         1 UNK         0.1329 
     78 H78       -78.6864   31.9251  -73.8478 H         1 UNK         0.1335 
     79 H79       -75.0343   31.5105  -74.1137 H         1 UNK         0.0680 
     80 H80       -76.3118   32.6685  -73.8231 H         1 UNK         0.0680 
     81 H81       -74.4787   33.4885  -71.8217 H         1 UNK         0.1032 
     82 H82       -74.1615   32.5225  -70.4073 H         1 UNK         0.1032 
     83 H83       -73.0578   32.1022  -73.2248 H         1 UNK         0.0461 
     84 H84       -71.9806   34.1732  -73.0533 H         1 UNK         0.3453 
     85 H85       -70.6459   34.3766  -71.9501 H         1 UNK         0.3453 
     86 H86       -73.4740   30.0506  -71.3035 H         1 UNK         0.2984 
     87 H87       -71.3102   28.0165  -71.5589 H         1 UNK         0.0554 
     88 H88       -74.2465   27.9554  -72.4446 H         1 UNK         0.0847 
     89 H89       -73.6267   28.1101  -70.8055 H         1 UNK         0.0847 
     90 H90       -73.4294   26.6027  -71.6715 H         1 UNK         0.0847 
     91 H91       -70.6992   26.9526  -73.3841 H         1 UNK         0.3141 
     92 H92       -70.4920   26.7258  -75.7934 H         1 UNK         0.0743 
     93 H93       -72.3969   24.4781  -74.9399 H         1 UNK         0.0784 
     94 H94       -71.0003   24.2293  -75.9867 H         1 UNK         0.0784 
     95 H95       -70.7780   24.7823  -74.3376 H         1 UNK         0.0784 
     96 H96       -72.8480   25.6518  -77.1783 H         1 UNK         0.3213 
     97 H97       -73.2513   28.2426  -79.3892 H         1 UNK         0.0855 
     98 H98       -71.2464   26.1037  -80.2911 H         1 UNK         0.0814 
     99 H99       -71.0340   27.8424  -80.4363 H         1 UNK         0.0814 
    100 H100      -72.2963   27.0415  -81.3549 H         1 UNK         0.0814 
    101 H101      -73.4546   25.2926  -79.5168 H         1 UNK         0.3105 
    102 H102      -76.9206   25.4428  -79.3547 H         1 UNK         0.0547 
    103 H103      -75.2428   24.4108  -80.9211 H         1 UNK         0.0837 
    104 H104      -74.5124   23.5496  -79.5671 H         1 UNK         0.0837 
    105 H105      -76.1711   23.2165  -80.0359 H         1 UNK         0.0837 
    106 H106      -77.1885   24.4290  -77.4026 H         1 UNK         0.3020 
    107 H107      -75.0238   22.9454  -75.0410 H         1 UNK         0.1245 
    108 H108      -75.0352   25.4170  -74.3221 H         1 UNK         0.0781 
    109 H109      -75.8928   24.2986  -73.3218 H         1 UNK         0.0781 
    110 H110      -77.4235   26.8749  -76.5193 H         1 UNK         0.0836 
    111 H111      -75.9037   27.1098  -75.6992 H         1 UNK         0.0836 
    112 H112      -77.8562   23.2899  -75.1246 H         1 UNK         0.3022 
    113 H113      -78.7141   20.9785  -77.5005 H         1 UNK         0.0747 
    114 H114      -79.7925   19.4784  -75.8330 H         1 UNK         0.0793 
    115 H115      -78.0668   19.1637  -75.8967 H         1 UNK         0.0793 
    116 H116      -78.7363   20.0919  -74.5609 H         1 UNK         0.0793 
    117 H117      -80.2177   21.9378  -75.2585 H         1 UNK         0.3047 
    118 H118      -80.8425   25.2320  -76.4206 H         1 UNK         0.0822 
    119 H119      -83.1357   24.4322  -75.8873 H         1 UNK         0.0807 
    120 H120      -82.5901   22.7578  -75.9511 H         1 UNK         0.0807 
    121 H121      -82.5560   23.7501  -77.3982 H         1 UNK         0.0807 
    122 H122      -80.4040   25.3069  -74.2708 H         1 UNK         0.2946 
    123 H123      -81.1919   23.5929  -71.4523 H         1 UNK         0.1144 
    124 H124      -78.2826   23.5504  -72.4382 H         1 UNK         0.0793 
    125 H125      -79.1739   22.1811  -71.7923 H         1 UNK         0.0793 
    126 H126      -78.7912   23.5408  -70.7507 H         1 UNK         0.0793 
    127 H127      -79.3574   25.7732  -72.2214 H         1 UNK         0.2896 
@<TRIPOS>BOND
     1    1    2 1    
     2    1   67 1    
     3    1   68 1    
     4    1   69 1    
     5    2    3 2    
     6    2    4 am   BACKBONE|DICT|INTERRES
     7    4    5 1    
     8    4   70 1    
     9    5    6 1    
    10    5   65 1    
    11    5   71 1    
    12    6    7 1    
    13    6   72 1    
    14    6   73 1    
    15    7    8 1    
    16    8    9 1    
    17    8   74 1    
    18    8   75 1    
    19    9   10 ar   
    20    9   14 ar   
    21   10   11 ar   
    22   10   76 1    
    23   11   12 ar   
    24   11   48 1    
    25   12   13 ar   
    26   12   77 1    
    27   13   14 ar   
    28   13   15 1    
    29   14   78 1    
    30   15   16 1    
    31   15   79 1    
    32   15   80 1    
    33   16   17 1    
    34   17   18 1    
    35   17   81 1    
    36   17   82 1    
    37   18   19 1    
    38   18   22 1    
    39   18   83 1    
    40   19   20 am   BACKBONE|DICT|INTERRES
    41   19   21 2    
    42   20   84 1    
    43   20   85 1    
    44   22   23 am   BACKBONE|DICT|INTERRES
    45   22   86 1    
    46   23   24 2    
    47   23   25 1    
    48   25   26 1    
    49   25   27 1    
    50   25   87 1    
    51   26   88 1    
    52   26   89 1    
    53   26   90 1    
    54   27   28 am   BACKBONE|DICT|INTERRES
    55   27   91 1    
    56   28   29 2    
    57   28   30 1    
    58   30   31 1    
    59   30   32 1    
    60   30   92 1    
    61   31   93 1    
    62   31   94 1    
    63   31   95 1    
    64   32   33 am   BACKBONE|DICT|INTERRES
    65   32   96 1    
    66   33   34 2    
    67   33   35 1    
    68   35   36 1    
    69   35   37 1    
    70   35   97 1    
    71   36   98 1    
    72   36   99 1    
    73   36  100 1    
    74   37   38 am   BACKBONE|DICT|INTERRES
    75   37  101 1    
    76   38   39 2    
    77   38   40 1    
    78   40   41 1    
    79   40   42 1    
    80   40  102 1    
    81   41  103 1    
    82   41  104 1    
    83   41  105 1    
    84   42   43 am   BACKBONE|DICT|INTERRES
    85   42  106 1    
    86   43   44 2    
    87   43   45 1    
    88   45   46 1    
    89   45   49 1    
    90   45  107 1    
    91   46   47 1    
    92   46  108 1    
    93   46  109 1    
    94   47   48 1    
    95   48  110 1    
    96   48  111 1    
    97   49   50 am   BACKBONE|DICT|INTERRES
    98   49  112 1    
    99   50   51 2    
   100   50   52 1    
   101   52   53 1    
   102   52   54 1    
   103   52  113 1    
   104   53  114 1    
   105   53  115 1    
   106   53  116 1    
   107   54   55 am   BACKBONE|DICT|INTERRES
   108   54  117 1    
   109   55   56 2    
   110   55   57 1    
   111   57   58 1    
   112   57   59 1    
   113   57  118 1    
   114   58  119 1    
   115   58  120 1    
   116   58  121 1    
   117   59   60 am   BACKBONE|DICT|INTERRES
   118   59  122 1    
   119   60   61 2    
   120   60   62 1    
   121   62   63 1    
   122   62   64 1    
   123   62  123 1    
   124   63  124 1    
   125   63  125 1    
   126   63  126 1    
   127   64   65 am   BACKBONE|DICT|INTERRES
   128   64  127 1    
   129   65   66 2    
@<TRIPOS>SUBSTRUCTURE
     1 UNK         1 GROUP             0       ****    0 ROOT    
