@<TRIPOS>MOLECULE
3R135
127   129    1
SMALL
USER_CHARGES


@<TRIPOS>ATOM
      1 CA        -77.1931   24.0584  -69.8694 C.3       0 UNK        -0.1998 
      2 C         -78.6012   24.2907  -70.3968 C.2       0 UNK         0.4909 
      3 O         -79.4177   23.3690  -70.3935 O.2       0 UNK        -0.5240 
      4 N         -78.8913   25.5165  -70.8459 N.am      1 UNK        -0.4739 
      5 CA        -80.1736   25.9035  -71.4374 C.3       1 UNK         0.0864 
      6 C6        -80.3470   27.4373  -71.4710 C.3       11 UNK        -0.0881 
      7 S7        -80.3253   28.2501  -69.8380 S.3       11 UNK        -0.2682 
      8 C8        -80.8326   29.9463  -70.2929 C.3       11 UNK         0.0289 
      9 C9        -79.8673   30.5708  -71.2916 C.ar      11 UNK        -0.0687 
     10 C10       -80.0736   30.3966  -72.6634 C.ar      11 UNK        -0.0823 
     11 C11       -79.1212   30.8312  -73.5862 C.ar      11 UNK        -0.0830 
     12 C12       -78.0029   31.5400  -73.1355 C.ar      11 UNK        -0.1021 
     13 C13       -77.8034   31.7556  -71.7674 C.ar      11 UNK        -0.0753 
     14 C14       -78.7371   31.2643  -70.8492 C.ar      11 UNK        -0.0933 
     15 C15       -76.5620   32.4880  -71.2765 C.3       11 UNK         0.0166 
     16 S16       -75.2411   31.3325  -70.7826 S.3       11 UNK        -0.2615 
     17 C17       -74.7979   30.5995  -72.3923 C.3       11 UNK        -0.0865 
     18 CA        -73.4769   29.7830  -72.3640 C.3       10 UNK         0.0862 
     19 C         -73.7181   28.3069  -71.9199 C.2       10 UNK         0.5551 
     20 N         -73.5768   27.3175  -72.7953 N.am      10 UNK        -0.7319 
     21 O         -74.0275   28.0542  -70.7589 O.2       10 UNK        -0.5018 
     22 N         -72.7569   29.9191  -73.6396 N.am      10 UNK        -0.4509 
     23 C         -71.4608   29.6418  -73.8199 C.2       10 UNK         0.4899 
     24 O         -70.6822   29.3320  -72.9164 O.2       10 UNK        -0.4839 
     25 CA        -70.9609   29.6887  -75.2745 C.3       9 UNK         0.0222 
     26 CB        -69.6498   30.4853  -75.3917 C.3       9 UNK        -0.1966 
     27 N         -70.7642   28.3434  -75.8217 N.am      9 UNK        -0.4218 
     28 C         -71.7246   27.4201  -75.9649 C.2       9 UNK         0.5020 
     29 O         -72.9015   27.5983  -75.6461 O.2       9 UNK        -0.5274 
     30 CA        -71.2881   26.0618  -76.5203 C.3       8 UNK         0.0270 
     31 CB        -70.8151   25.1391  -75.3841 C.3       8 UNK        -0.1976 
     32 N         -72.4130   25.4348  -77.2109 N.am      8 UNK        -0.4313 
     33 C         -72.3249   24.7489  -78.3563 C.2       8 UNK         0.5041 
     34 O         -71.2664   24.5516  -78.9561 O.2       8 UNK        -0.5577 
     35 CA        -73.6269   24.1745  -78.9409 C.3       7 UNK         0.0284 
     36 CB        -73.9542   22.8184  -78.2950 C.3       7 UNK        -0.1958 
     37 N         -74.7794   25.0665  -78.8056 N.am      7 UNK        -0.4454 
     38 C         -74.9328   26.2337  -79.4480 C.2       7 UNK         0.5089 
     39 O         -74.1090   26.6985  -80.2362 O.2       7 UNK        -0.5125 
     40 CA        -76.2257   27.0151  -79.1622 C.3       6 UNK         0.0408 
     41 CB        -77.3905   26.4860  -80.0146 C.3       6 UNK        -0.1791 
     42 N         -76.5720   26.9405  -77.7424 N.am      6 UNK        -0.4762 
     43 C         -76.1225   27.8011  -76.8171 C.2       6 UNK         0.5007 
     44 O         -75.5177   28.8382  -77.0944 O.2       6 UNK        -0.5032 
     45 CA        -76.3761   27.4589  -75.3319 C.3       5 UNK         0.0783 
     46 C46       -77.2991   28.4830  -74.6297 C.3       11 UNK        -0.0857 
     47 S47       -78.9792   28.6710  -75.3243 S.3       11 UNK        -0.2512 
     48 C48       -79.2680   30.4587  -75.0567 C.3       11 UNK         0.0225 
     49 N         -76.7761   26.0651  -75.0946 N.am      5 UNK        -0.4615 
     50 C         -75.9300   25.0281  -75.1988 C.2       4 UNK         0.5053 
     51 O         -74.7456   25.1404  -75.5092 O.2       4 UNK        -0.5105 
     52 CA        -76.4996   23.6184  -74.9808 C.3       4 UNK         0.0263 
     53 CB        -76.5971   23.2951  -73.4836 C.3       4 UNK        -0.1981 
     54 N         -77.7985   23.4098  -75.6213 N.am      4 UNK        -0.4224 
     55 C         -78.0528   23.5442  -76.9288 C.2       3 UNK         0.4895 
     56 O         -77.2020   23.8848  -77.7504 O.2       3 UNK        -0.5091 
     57 CA        -79.4946   23.2967  -77.4100 C.3       3 UNK         0.0250 
     58 CB        -79.7373   21.8021  -77.6957 C.3       3 UNK        -0.1996 
     59 N         -80.5300   23.8672  -76.5341 N.am      3 UNK        -0.4254 
     60 C         -80.8559   23.5173  -75.2814 C.2       2 UNK         0.5004 
     61 O         -80.3674   22.5612  -74.6748 O.2       2 UNK        -0.5226 
     62 CA        -81.8768   24.4231  -74.5730 C.3       2 UNK         0.0269 
     63 CB        -83.2472   23.7304  -74.4983 C.3       2 UNK        -0.1926 
     64 N         -81.4665   24.8294  -73.2227 N.am      2 UNK        -0.4687 
     65 C         -80.2872   25.3715  -72.8799 C.2       1 UNK         0.5165 
     66 O         -79.3445   25.5412  -73.6596 O.2       1 UNK        -0.5079 
     67 H67       -76.5503   24.9242  -70.0293 H         1 UNK         0.0900 
     68 H68       -76.7397   23.2040  -70.3712 H         1 UNK         0.0900 
     69 H69       -77.2230   23.8492  -68.8006 H         1 UNK         0.0900 
     70 H70       -78.1841   26.2369  -70.8347 H         1 UNK         0.2959 
     71 H71       -80.9764   25.4749  -70.8331 H         1 UNK         0.1079 
     72 H72       -79.5483   27.8714  -72.0752 H         1 UNK         0.0837 
     73 H73       -81.2882   27.6986  -71.9594 H         1 UNK         0.0837 
     74 H74       -80.8823   30.5567  -69.3900 H         1 UNK         0.0685 
     75 H75       -81.8431   29.9256  -70.7041 H         1 UNK         0.0685 
     76 H76       -80.9358   29.8457  -73.0129 H         1 UNK         0.1434 
     77 H77       -77.2648   31.8875  -73.8454 H         1 UNK         0.1329 
     78 H78       -78.5674   31.3953  -69.7891 H         1 UNK         0.1335 
     79 H79       -76.8213   33.1120  -70.4199 H         1 UNK         0.0680 
     80 H80       -76.1873   33.1673  -72.0438 H         1 UNK         0.0680 
     81 H81       -75.6291   29.9868  -72.7405 H         1 UNK         0.1032 
     82 H82       -74.7163   31.4244  -73.1020 H         1 UNK         0.1032 
     83 H83       -72.8274   30.2238  -71.6049 H         1 UNK         0.0461 
     84 H84       -73.3164   27.5030  -73.7593 H         1 UNK         0.3453 
     85 H85       -73.7241   26.3694  -72.4914 H         1 UNK         0.3453 
     86 H86       -73.3226   30.0978  -74.4567 H         1 UNK         0.2984 
     87 H87       -71.7118   30.1906  -75.8886 H         1 UNK         0.0554 
     88 H88       -69.3379   30.5884  -76.4312 H         1 UNK         0.0847 
     89 H89       -68.8353   30.0115  -74.8419 H         1 UNK         0.0847 
     90 H90       -69.7695   31.4925  -74.9900 H         1 UNK         0.0847 
     91 H91       -69.8173   28.0958  -76.0708 H         1 UNK         0.3141 
     92 H92       -70.4650   26.2291  -77.2184 H         1 UNK         0.0743 
     93 H93       -71.6137   24.9501  -74.6650 H         1 UNK         0.0784 
     94 H94       -70.4785   24.1769  -75.7704 H         1 UNK         0.0784 
     95 H95       -69.9801   25.5805  -74.8384 H         1 UNK         0.0784 
     96 H96       -73.3178   25.5548  -76.7562 H         1 UNK         0.3213 
     97 H97       -73.4629   24.0095  -80.0080 H         1 UNK         0.0855 
     98 H98       -74.1302   22.9161  -77.2235 H         1 UNK         0.0814 
     99 H99       -73.1314   22.1147  -78.4275 H         1 UNK         0.0814 
    100 H100      -74.8418   22.3688  -78.7408 H         1 UNK         0.0814 
    101 H101      -75.5447   24.7309  -78.2273 H         1 UNK         0.3105 
    102 H102      -76.0594   28.0567  -79.4456 H         1 UNK         0.0547 
    103 H103      -77.1662   26.5836  -81.0775 H         1 UNK         0.0837 
    104 H104      -77.5963   25.4328  -79.8245 H         1 UNK         0.0837 
    105 H105      -78.3062   27.0459  -79.8248 H         1 UNK         0.0837 
    106 H106      -77.0452   26.1025  -77.4305 H         1 UNK         0.3020 
    107 H107      -75.3995   27.5743  -74.8593 H         1 UNK         0.1245 
    108 H108      -76.8109   29.4573  -74.6598 H         1 UNK         0.0781 
    109 H109      -77.3956   28.2323  -73.5721 H         1 UNK         0.0781 
    110 H110      -80.2709   30.7150  -75.4009 H         1 UNK         0.0836 
    111 H111      -78.5748   31.0317  -75.6746 H         1 UNK         0.0836 
    112 H112      -77.7349   25.9026  -74.7971 H         1 UNK         0.3022 
    113 H113      -75.8030   22.9097  -75.4322 H         1 UNK         0.0747 
    114 H114      -76.9290   22.2701  -73.3173 H         1 UNK         0.0793 
    115 H115      -75.6285   23.4081  -72.9949 H         1 UNK         0.0793 
    116 H116      -77.2970   23.9600  -72.9802 H         1 UNK         0.0793 
    117 H117      -78.5741   23.1359  -75.0237 H         1 UNK         0.3047 
    118 H118      -79.5939   23.8262  -78.3592 H         1 UNK         0.0822 
    119 H119      -80.7379   21.6317  -78.0929 H         1 UNK         0.0807 
    120 H120      -79.6215   21.1878  -76.8024 H         1 UNK         0.0807 
    121 H121      -79.0271   21.4300  -78.4355 H         1 UNK         0.0807 
    122 H122      -80.9892   24.6822  -76.9175 H         1 UNK         0.2946 
    123 H123      -81.9881   25.3409  -75.1545 H         1 UNK         0.1144 
    124 H124      -84.0063   24.3904  -74.0780 H         1 UNK         0.0793 
    125 H125      -83.2081   22.8284  -73.8858 H         1 UNK         0.0793 
    126 H126      -83.5914   23.4349  -75.4905 H         1 UNK         0.0793 
    127 H127      -82.1670   24.7213  -72.5037 H         1 UNK         0.2896 
@<TRIPOS>BOND
     1    1    2 1    
     2    1   67 1    
     3    1   68 1    
     4    1   69 1    
     5    2    3 2    
     6    2    4 am   BACKBONE|DICT|INTERRES
     7    4    5 1    
     8    4   70 1    
     9    5    6 1    
    10    5   65 1    
    11    5   71 1    
    12    6    7 1    
    13    6   72 1    
    14    6   73 1    
    15    7    8 1    
    16    8    9 1    
    17    8   74 1    
    18    8   75 1    
    19    9   10 ar   
    20    9   14 ar   
    21   10   11 ar   
    22   10   76 1    
    23   11   12 ar   
    24   11   48 1    
    25   12   13 ar   
    26   12   77 1    
    27   13   14 ar   
    28   13   15 1    
    29   14   78 1    
    30   15   16 1    
    31   15   79 1    
    32   15   80 1    
    33   16   17 1    
    34   17   18 1    
    35   17   81 1    
    36   17   82 1    
    37   18   19 1    
    38   18   22 1    
    39   18   83 1    
    40   19   20 am   BACKBONE|DICT|INTERRES
    41   19   21 2    
    42   20   84 1    
    43   20   85 1    
    44   22   23 am   BACKBONE|DICT|INTERRES
    45   22   86 1    
    46   23   24 2    
    47   23   25 1    
    48   25   26 1    
    49   25   27 1    
    50   25   87 1    
    51   26   88 1    
    52   26   89 1    
    53   26   90 1    
    54   27   28 am   BACKBONE|DICT|INTERRES
    55   27   91 1    
    56   28   29 2    
    57   28   30 1    
    58   30   31 1    
    59   30   32 1    
    60   30   92 1    
    61   31   93 1    
    62   31   94 1    
    63   31   95 1    
    64   32   33 am   BACKBONE|DICT|INTERRES
    65   32   96 1    
    66   33   34 2    
    67   33   35 1    
    68   35   36 1    
    69   35   37 1    
    70   35   97 1    
    71   36   98 1    
    72   36   99 1    
    73   36  100 1    
    74   37   38 am   BACKBONE|DICT|INTERRES
    75   37  101 1    
    76   38   39 2    
    77   38   40 1    
    78   40   41 1    
    79   40   42 1    
    80   40  102 1    
    81   41  103 1    
    82   41  104 1    
    83   41  105 1    
    84   42   43 am   BACKBONE|DICT|INTERRES
    85   42  106 1    
    86   43   44 2    
    87   43   45 1    
    88   45   46 1    
    89   45   49 1    
    90   45  107 1    
    91   46   47 1    
    92   46  108 1    
    93   46  109 1    
    94   47   48 1    
    95   48  110 1    
    96   48  111 1    
    97   49   50 am   BACKBONE|DICT|INTERRES
    98   49  112 1    
    99   50   51 2    
   100   50   52 1    
   101   52   53 1    
   102   52   54 1    
   103   52  113 1    
   104   53  114 1    
   105   53  115 1    
   106   53  116 1    
   107   54   55 am   BACKBONE|DICT|INTERRES
   108   54  117 1    
   109   55   56 2    
   110   55   57 1    
   111   57   58 1    
   112   57   59 1    
   113   57  118 1    
   114   58  119 1    
   115   58  120 1    
   116   58  121 1    
   117   59   60 am   BACKBONE|DICT|INTERRES
   118   59  122 1    
   119   60   61 2    
   120   60   62 1    
   121   62   63 1    
   122   62   64 1    
   123   62  123 1    
   124   63  124 1    
   125   63  125 1    
   126   63  126 1    
   127   64   65 am   BACKBONE|DICT|INTERRES
   128   64  127 1    
   129   65   66 2    
@<TRIPOS>SUBSTRUCTURE
     1 UNK         1 GROUP             0       ****    0 ROOT    
