@<TRIPOS>MOLECULE
3R135
127   129    1
SMALL
USER_CHARGES


@<TRIPOS>ATOM
      1 CA        -83.0568   26.4562  -70.8457 C.3       0 UNK        -0.1998 
      2 C         -81.7332   26.3399  -71.5849 C.2       0 UNK         0.4909 
      3 O         -81.7122   25.9184  -72.7418 O.2       0 UNK        -0.5240 
      4 N         -80.6231   26.6959  -70.9211 N.am      1 UNK        -0.4739 
      5 CA        -79.2660   26.7131  -71.4902 C.3       1 UNK         0.0864 
      6 C6        -78.2310   27.3539  -70.5301 C.3       11 UNK        -0.0881 
      7 S7        -78.5785   29.0171  -69.8342 S.3       11 UNK        -0.2682 
      8 C8        -79.8072   29.8425  -70.9115 C.3       11 UNK         0.0289 
      9 C9        -79.3608   30.0009  -72.3600 C.ar      11 UNK        -0.0687 
     10 C10       -80.2428   29.6814  -73.3965 C.ar      11 UNK        -0.0823 
     11 C11       -79.8499   29.8119  -74.7312 C.ar      11 UNK        -0.0830 
     12 C12       -78.5603   30.2631  -75.0272 C.ar      11 UNK        -0.1021 
     13 C13       -77.6594   30.5585  -74.0007 C.ar      11 UNK        -0.0753 
     14 C14       -78.0790   30.4636  -72.6710 C.ar      11 UNK        -0.0933 
     15 C15       -76.2271   30.9514  -74.3309 C.3       11 UNK         0.0166 
     16 S16       -75.1718   29.4811  -74.5646 S.3       11 UNK        -0.2615 
     17 C17       -74.8906   28.9445  -72.8393 C.3       11 UNK        -0.0865 
     18 CA        -73.5253   29.4304  -72.2851 C.3       10 UNK         0.0862 
     19 C         -73.4655   29.3073  -70.7341 C.2       10 UNK         0.5551 
     20 N         -72.5454   28.5424  -70.1586 N.am      10 UNK        -0.7319 
     21 O         -74.2651   29.9291  -70.0397 O.2       10 UNK        -0.5018 
     22 N         -72.4130   28.7717  -72.9845 N.am      10 UNK        -0.4509 
     23 C         -71.1851   29.2745  -73.1600 C.2       10 UNK         0.4899 
     24 O         -70.8441   30.3892  -72.7627 O.2       10 UNK        -0.4839 
     25 CA        -70.1479   28.3844  -73.8832 C.3       9 UNK         0.0222 
     26 CB        -68.8960   28.1849  -73.0105 C.3       9 UNK        -0.1966 
     27 N         -70.6598   27.0654  -74.2817 N.am      9 UNK        -0.4218 
     28 C         -71.5161   26.8439  -75.2874 C.2       9 UNK         0.5020 
     29 O         -71.9349   27.7331  -76.0326 O.2       9 UNK        -0.5274 
     30 CA        -72.0334   25.4008  -75.4245 C.3       8 UNK         0.0270 
     31 CB        -72.9462   25.0344  -74.2393 C.3       8 UNK        -0.1976 
     32 N         -72.8006   25.2540  -76.6571 N.am      8 UNK        -0.4313 
     33 C         -72.2754   25.0329  -77.8689 C.2       8 UNK         0.5041 
     34 O         -71.1025   24.7123  -78.0674 O.2       8 UNK        -0.5577 
     35 CA        -73.2160   25.2571  -79.0615 C.3       7 UNK         0.0284 
     36 CB        -74.1502   24.0529  -79.2655 C.3       7 UNK        -0.1958 
     37 N         -74.0065   26.4688  -78.8406 N.am      7 UNK        -0.4454 
     38 C         -73.6216   27.7060  -79.1809 C.2       7 UNK         0.5089 
     39 O         -72.6298   27.9381  -79.8744 O.2       7 UNK        -0.5125 
     40 CA        -74.4492   28.8940  -78.6404 C.3       6 UNK         0.0408 
     41 CB        -74.7944   29.9098  -79.7492 C.3       6 UNK        -0.1791 
     42 N         -75.6450   28.5213  -77.8695 N.am      6 UNK        -0.4762 
     43 C         -76.7510   27.9068  -78.3151 C.2       6 UNK         0.5007 
     44 O         -76.9339   27.5747  -79.4874 O.2       6 UNK        -0.5032 
     45 CA        -77.8147   27.5559  -77.2557 C.3       5 UNK         0.0783 
     46 C46       -79.2103   28.0538  -77.7091 C.3       11 UNK        -0.0857 
     47 S47       -80.5199   27.7661  -76.4697 S.3       11 UNK        -0.2512 
     48 C48       -80.8197   29.4510  -75.8457 C.3       11 UNK         0.0225 
     49 N         -77.8305   26.1233  -76.9505 N.am      5 UNK        -0.4615 
     50 C         -76.7957   25.3579  -76.5799 C.2       4 UNK         0.5053 
     51 O         -75.6326   25.7597  -76.5001 O.2       4 UNK        -0.5105 
     52 CA        -77.1246   23.8970  -76.2363 C.3       4 UNK         0.0263 
     53 CB        -76.0377   23.2438  -75.3631 C.3       4 UNK        -0.1981 
     54 N         -78.4034   23.8138  -75.5298 N.am      4 UNK        -0.4224 
     55 C         -79.5337   23.2771  -76.0126 C.2       3 UNK         0.4895 
     56 O         -79.6403   22.8451  -77.1613 O.2       3 UNK        -0.5091 
     57 CA        -80.7538   23.2239  -75.0641 C.3       3 UNK         0.0250 
     58 CB        -81.6848   22.0283  -75.3575 C.3       3 UNK        -0.1996 
     59 N         -80.3922   23.2717  -73.6413 N.am      3 UNK        -0.4254 
     60 C         -79.6056   22.4120  -72.9693 C.2       2 UNK         0.5004 
     61 O         -79.2110   21.3418  -73.4344 O.2       2 UNK        -0.5226 
     62 CA        -79.1441   22.8323  -71.5556 C.3       2 UNK         0.0269 
     63 CB        -77.6880   22.4023  -71.2748 C.3       2 UNK        -0.1926 
     64 N         -79.3147   24.2650  -71.2671 N.am      2 UNK        -0.4687 
     65 C         -78.7863   25.3107  -71.9274 C.2       1 UNK         0.5165 
     66 O         -78.0105   25.2010  -72.8782 O.2       1 UNK        -0.5079 
     67 H67       -83.5383   25.4808  -70.7832 H         1 UNK         0.0900 
     68 H68       -83.7242   27.1323  -71.3791 H         1 UNK         0.0900 
     69 H69       -82.9265   26.8370  -69.8329 H         1 UNK         0.0900 
     70 H70       -80.6964   27.0250  -69.9685 H         1 UNK         0.2959 
     71 H71       -79.3013   27.3025  -72.4065 H         1 UNK         0.1079 
     72 H72       -78.0592   26.6926  -69.6784 H         1 UNK         0.0837 
     73 H73       -77.2674   27.4274  -71.0386 H         1 UNK         0.0837 
     74 H74       -80.7623   29.3222  -70.8467 H         1 UNK         0.0685 
     75 H75       -79.9900   30.8390  -70.5078 H         1 UNK         0.0685 
     76 H76       -81.2360   29.3205  -73.1650 H         1 UNK         0.1434 
     77 H77       -78.2465   30.3609  -76.0567 H         1 UNK         0.1329 
     78 H78       -77.3987   30.7208  -71.8713 H         1 UNK         0.1335 
     79 H79       -76.2106   31.5453  -75.2460 H         1 UNK         0.0680 
     80 H80       -75.8082   31.5854  -73.5477 H         1 UNK         0.0680 
     81 H81       -74.9518   27.8554  -72.8025 H         1 UNK         0.1032 
     82 H82       -75.7088   29.2967  -72.2146 H         1 UNK         0.1032 
     83 H83       -73.4563   30.5011  -72.4873 H         1 UNK         0.0461 
     84 H84       -71.8778   28.0379  -70.7181 H         1 UNK         0.3453 
     85 H85       -72.5154   28.4777  -69.1533 H         1 UNK         0.3453 
     86 H86       -72.6101   27.8607  -73.3669 H         1 UNK         0.2984 
     87 H87       -69.8471   28.9189  -74.7866 H         1 UNK         0.0554 
     88 H88       -68.1324   27.6104  -73.5354 H         1 UNK         0.0847 
     89 H89       -69.1291   27.6650  -72.0805 H         1 UNK         0.0847 
     90 H90       -68.4460   29.1421  -72.7431 H         1 UNK         0.0847 
     91 H91       -70.3689   26.2818  -73.7139 H         1 UNK         0.3141 
     92 H92       -71.1775   24.7226  -75.4413 H         1 UNK         0.0743 
     93 H93       -72.4259   25.1256  -73.2853 H         1 UNK         0.0784 
     94 H94       -73.2874   24.0021  -74.3139 H         1 UNK         0.0784 
     95 H95       -73.8293   25.6741  -74.1956 H         1 UNK         0.0784 
     96 H96       -73.7777   25.5320  -76.6007 H         1 UNK         0.3213 
     97 H97       -72.6082   25.3732  -79.9615 H         1 UNK         0.0855 
     98 H98       -73.5758   23.1490  -79.4723 H         1 UNK         0.0814 
     99 H99       -74.8207   24.2115  -80.1103 H         1 UNK         0.0814 
    100 H100      -74.7616   23.8538  -78.3858 H         1 UNK         0.0814 
    101 H101      -74.8081   26.3825  -78.2260 H         1 UNK         0.3105 
    102 H102      -73.7966   29.4006  -77.9275 H         1 UNK         0.0547 
    103 H103      -75.3899   29.4596  -80.5437 H         1 UNK         0.0837 
    104 H104      -73.8894   30.3055  -80.2115 H         1 UNK         0.0837 
    105 H105      -75.3496   30.7592  -79.3516 H         1 UNK         0.0837 
    106 H106      -75.5657   28.6922  -76.8736 H         1 UNK         0.3020 
    107 H107      -77.5519   28.0612  -76.3253 H         1 UNK         0.1245 
    108 H108      -79.5142   27.5444  -78.6260 H         1 UNK         0.0781 
    109 H109      -79.1755   29.1148  -77.9622 H         1 UNK         0.0781 
    110 H110      -81.8454   29.5029  -75.4773 H         1 UNK         0.0836 
    111 H111      -80.7597   30.1794  -76.6555 H         1 UNK         0.0836 
    112 H112      -78.7407   25.6890  -76.9893 H         1 UNK         0.3022 
    113 H113      -77.1711   23.3514  -77.1808 H         1 UNK         0.0747 
    114 H114      -76.2985   22.2157  -75.1109 H         1 UNK         0.0793 
    115 H115      -75.0790   23.2155  -75.8821 H         1 UNK         0.0793 
    116 H116      -75.8933   23.7896  -74.4296 H         1 UNK         0.0793 
    117 H117      -78.4051   24.1990  -74.5891 H         1 UNK         0.3047 
    118 H118      -81.3193   24.1372  -75.2568 H         1 UNK         0.0822 
    119 H119      -82.5403   22.0168  -74.6822 H         1 UNK         0.0807 
    120 H120      -81.1647   21.0752  -75.2577 H         1 UNK         0.0807 
    121 H121      -82.0777   22.0778  -76.3737 H         1 UNK         0.0807 
    122 H122      -80.6819   24.1190  -73.1627 H         1 UNK         0.2946 
    123 H123      -79.7909   22.2958  -70.8594 H         1 UNK         0.1144 
    124 H124      -77.5785   21.3189  -71.3384 H         1 UNK         0.0793 
    125 H125      -77.3722   22.6983  -70.2746 H         1 UNK         0.0793 
    126 H126      -76.9913   22.8402  -71.9905 H         1 UNK         0.0793 
    127 H127      -79.9609   24.4813  -70.5202 H         1 UNK         0.2896 
@<TRIPOS>BOND
     1    1    2 1    
     2    1   67 1    
     3    1   68 1    
     4    1   69 1    
     5    2    3 2    
     6    2    4 am   BACKBONE|DICT|INTERRES
     7    4    5 1    
     8    4   70 1    
     9    5    6 1    
    10    5   65 1    
    11    5   71 1    
    12    6    7 1    
    13    6   72 1    
    14    6   73 1    
    15    7    8 1    
    16    8    9 1    
    17    8   74 1    
    18    8   75 1    
    19    9   10 ar   
    20    9   14 ar   
    21   10   11 ar   
    22   10   76 1    
    23   11   12 ar   
    24   11   48 1    
    25   12   13 ar   
    26   12   77 1    
    27   13   14 ar   
    28   13   15 1    
    29   14   78 1    
    30   15   16 1    
    31   15   79 1    
    32   15   80 1    
    33   16   17 1    
    34   17   18 1    
    35   17   81 1    
    36   17   82 1    
    37   18   19 1    
    38   18   22 1    
    39   18   83 1    
    40   19   20 am   BACKBONE|DICT|INTERRES
    41   19   21 2    
    42   20   84 1    
    43   20   85 1    
    44   22   23 am   BACKBONE|DICT|INTERRES
    45   22   86 1    
    46   23   24 2    
    47   23   25 1    
    48   25   26 1    
    49   25   27 1    
    50   25   87 1    
    51   26   88 1    
    52   26   89 1    
    53   26   90 1    
    54   27   28 am   BACKBONE|DICT|INTERRES
    55   27   91 1    
    56   28   29 2    
    57   28   30 1    
    58   30   31 1    
    59   30   32 1    
    60   30   92 1    
    61   31   93 1    
    62   31   94 1    
    63   31   95 1    
    64   32   33 am   BACKBONE|DICT|INTERRES
    65   32   96 1    
    66   33   34 2    
    67   33   35 1    
    68   35   36 1    
    69   35   37 1    
    70   35   97 1    
    71   36   98 1    
    72   36   99 1    
    73   36  100 1    
    74   37   38 am   BACKBONE|DICT|INTERRES
    75   37  101 1    
    76   38   39 2    
    77   38   40 1    
    78   40   41 1    
    79   40   42 1    
    80   40  102 1    
    81   41  103 1    
    82   41  104 1    
    83   41  105 1    
    84   42   43 am   BACKBONE|DICT|INTERRES
    85   42  106 1    
    86   43   44 2    
    87   43   45 1    
    88   45   46 1    
    89   45   49 1    
    90   45  107 1    
    91   46   47 1    
    92   46  108 1    
    93   46  109 1    
    94   47   48 1    
    95   48  110 1    
    96   48  111 1    
    97   49   50 am   BACKBONE|DICT|INTERRES
    98   49  112 1    
    99   50   51 2    
   100   50   52 1    
   101   52   53 1    
   102   52   54 1    
   103   52  113 1    
   104   53  114 1    
   105   53  115 1    
   106   53  116 1    
   107   54   55 am   BACKBONE|DICT|INTERRES
   108   54  117 1    
   109   55   56 2    
   110   55   57 1    
   111   57   58 1    
   112   57   59 1    
   113   57  118 1    
   114   58  119 1    
   115   58  120 1    
   116   58  121 1    
   117   59   60 am   BACKBONE|DICT|INTERRES
   118   59  122 1    
   119   60   61 2    
   120   60   62 1    
   121   62   63 1    
   122   62   64 1    
   123   62  123 1    
   124   63  124 1    
   125   63  125 1    
   126   63  126 1    
   127   64   65 am   BACKBONE|DICT|INTERRES
   128   64  127 1    
   129   65   66 2    
@<TRIPOS>SUBSTRUCTURE
     1 UNK         1 GROUP             0       ****    0 ROOT    
