@<TRIPOS>MOLECULE
3R135
127   129    1
SMALL
USER_CHARGES


@<TRIPOS>ATOM
      1 CA        -79.2075   29.1459  -74.8587 C.3       0 UNK        -0.1998 
      2 C         -80.6945   29.1768  -75.1987 C.2       0 UNK         0.4909 
      3 O         -81.0642   29.7535  -76.2195 O.2       0 UNK        -0.5240 
      4 N         -81.5864   28.5770  -74.3990 N.am      1 UNK        -0.4739 
      5 CA        -81.3316   27.8156  -73.1693 C.3       1 UNK         0.0864 
      6 C6        -82.0057   28.4574  -71.9268 C.3       11 UNK        -0.0881 
      7 S7        -81.4810   30.1832  -71.6297 S.3       11 UNK        -0.2682 
      8 C8        -80.3584   30.0262  -70.2034 C.3       11 UNK         0.0289 
      9 C9        -78.9889   29.5065  -70.6146 C.ar      11 UNK        -0.0687 
     10 C10       -78.6510   28.1654  -70.4114 C.ar      11 UNK        -0.0823 
     11 C11       -77.3991   27.6842  -70.8058 C.ar      11 UNK        -0.0830 
     12 C12       -76.4772   28.5574  -71.3928 C.ar      11 UNK        -0.1021 
     13 C13       -76.8014   29.9008  -71.5962 C.ar      11 UNK        -0.0753 
     14 C14       -78.0573   30.3715  -71.1993 C.ar      11 UNK        -0.0933 
     15 C15       -75.8024   30.8306  -72.2695 C.3       11 UNK         0.0166 
     16 S16       -74.4076   31.2146  -71.1668 S.3       11 UNK        -0.2615 
     17 C17       -73.4882   32.4482  -72.1544 C.3       11 UNK        -0.0865 
     18 CA        -72.1504   31.9742  -72.8038 C.3       10 UNK         0.0862 
     19 C         -71.0332   31.4677  -71.8378 C.2       10 UNK         0.5551 
     20 N         -71.1361   31.7138  -70.5384 N.am      10 UNK        -0.7319 
     21 O         -70.0228   30.9189  -72.2738 O.2       10 UNK        -0.5018 
     22 N         -72.3495   31.1609  -74.0163 N.am      10 UNK        -0.4509 
     23 C         -72.5335   29.8359  -74.1031 C.2       10 UNK         0.4899 
     24 O         -72.6190   29.0794  -73.1333 O.2       10 UNK        -0.4839 
     25 CA        -72.7031   29.2815  -75.5342 C.3       9 UNK         0.0222 
     26 CB        -71.7645   29.9411  -76.5709 C.3       9 UNK        -0.1966 
     27 N         -72.6090   27.8196  -75.5901 N.am      9 UNK        -0.4218 
     28 C         -71.5333   27.0465  -75.3825 C.2       9 UNK         0.5020 
     29 O         -70.3954   27.4731  -75.1781 O.2       9 UNK        -0.5274 
     30 CA        -71.7659   25.5243  -75.4102 C.3       8 UNK         0.0270 
     31 CB        -72.2295   25.0282  -74.0307 C.3       8 UNK        -0.1976 
     32 N         -72.7265   25.0953  -76.4328 N.am      8 UNK        -0.4313 
     33 C         -72.5060   25.1441  -77.7550 C.2       8 UNK         0.5041 
     34 O         -71.4497   25.5277  -78.2595 O.2       8 UNK        -0.5577 
     35 CA        -73.6545   24.6906  -78.6750 C.3       7 UNK         0.0284 
     36 CB        -73.7197   23.1572  -78.7640 C.3       7 UNK        -0.1958 
     37 N         -74.9536   25.2186  -78.2542 N.am      7 UNK        -0.4454 
     38 C         -75.3038   26.5111  -78.3285 C.2       7 UNK         0.5089 
     39 O         -74.6069   27.3839  -78.8465 O.2       7 UNK        -0.5125 
     40 CA        -76.6451   26.9059  -77.6856 C.3       6 UNK         0.0408 
     41 CB        -77.8046   26.7228  -78.6765 C.3       6 UNK        -0.1791 
     42 N         -76.9277   26.1628  -76.4555 N.am      6 UNK        -0.4762 
     43 C         -76.1860   26.2303  -75.3408 C.2       6 UNK         0.5007 
     44 O         -75.2077   26.9622  -75.2181 O.2       6 UNK        -0.5032 
     45 CA        -76.5807   25.3100  -74.1735 C.3       5 UNK         0.0783 
     46 C46       -77.7497   25.9336  -73.3882 C.3       11 UNK        -0.0857 
     47 S47       -78.0313   25.1475  -71.7685 S.3       11 UNK        -0.2512 
     48 C48       -77.0565   26.2092  -70.6482 C.3       11 UNK         0.0225 
     49 N         -76.8848   23.9546  -74.6347 N.am      5 UNK        -0.4615 
     50 C         -76.0004   23.1261  -75.2034 C.2       4 UNK         0.5053 
     51 O         -74.8106   23.3974  -75.3591 O.2       4 UNK        -0.5105 
     52 CA        -76.5514   21.7905  -75.7277 C.3       4 UNK         0.0263 
     53 CB        -76.6350   20.7573  -74.5933 C.3       4 UNK        -0.1981 
     54 N         -77.8662   21.9389  -76.3593 N.am      4 UNK        -0.4224 
     55 C         -78.0862   22.6158  -77.4965 C.2       3 UNK         0.4895 
     56 O         -77.1958   23.1485  -78.1600 O.2       3 UNK        -0.5091 
     57 CA        -79.5549   22.7642  -77.9354 C.3       3 UNK         0.0250 
     58 CB        -80.0405   21.4946  -78.6531 C.3       3 UNK        -0.1996 
     59 N         -80.4612   23.0866  -76.8239 N.am      3 UNK        -0.4254 
     60 C         -80.3786   24.2097  -76.0980 C.2       2 UNK         0.5004 
     61 O         -79.5375   25.0890  -76.3075 O.2       2 UNK        -0.5226 
     62 CA        -81.3515   24.3694  -74.9189 C.3       2 UNK         0.0269 
     63 CB        -81.0003   23.3578  -73.8057 C.3       2 UNK        -0.1926 
     64 N         -81.2103   25.7483  -74.4507 N.am      2 UNK        -0.4687 
     65 C         -81.7873   26.3614  -73.4117 C.2       1 UNK         0.5165 
     66 O         -82.6481   25.8443  -72.6981 O.2       1 UNK        -0.5079 
     67 H67       -78.7981   28.1535  -75.0371 H         1 UNK         0.0900 
     68 H68       -78.6594   29.8460  -75.4889 H         1 UNK         0.0900 
     69 H69       -79.0269   29.4331  -73.8234 H         1 UNK         0.0900 
     70 H70       -82.5588   28.6075  -74.6725 H         1 UNK         0.2959 
     71 H71       -80.2646   27.7519  -72.9547 H         1 UNK         0.1079 
     72 H72       -81.8043   27.8620  -71.0344 H         1 UNK         0.0837 
     73 H73       -83.0910   28.4613  -72.0447 H         1 UNK         0.0837 
     74 H74       -80.8092   29.3865  -69.4431 H         1 UNK         0.0685 
     75 H75       -80.2442   31.0079  -69.7412 H         1 UNK         0.0685 
     76 H76       -79.3679   27.4882  -69.9674 H         1 UNK         0.1434 
     77 H77       -75.5096   28.1925  -71.7120 H         1 UNK         0.1329 
     78 H78       -78.3192   31.4087  -71.3583 H         1 UNK         0.1335 
     79 H79       -76.2909   31.7579  -72.5729 H         1 UNK         0.0680 
     80 H80       -75.4266   30.3629  -73.1807 H         1 UNK         0.0680 
     81 H81       -73.2900   33.3010  -71.5031 H         1 UNK         0.1032 
     82 H82       -74.1433   32.8465  -72.9304 H         1 UNK         0.1032 
     83 H83       -71.7048   32.8850  -73.2058 H         1 UNK         0.0461 
     84 H84       -70.3991   31.4127  -69.9204 H         1 UNK         0.3453 
     85 H85       -71.9675   32.1409  -70.1613 H         1 UNK         0.3453 
     86 H86       -72.2800   31.6742  -74.8824 H         1 UNK         0.2984 
     87 H87       -73.7288   29.5106  -75.8267 H         1 UNK         0.0554 
     88 H88       -72.0154   30.9899  -76.7299 H         1 UNK         0.0847 
     89 H89       -71.8429   29.4492  -77.5408 H         1 UNK         0.0847 
     90 H90       -70.7202   29.8967  -76.2595 H         1 UNK         0.0847 
     91 H91       -73.5139   27.3523  -75.6343 H         1 UNK         0.3141 
     92 H92       -70.8086   25.0490  -75.6350 H         1 UNK         0.0743 
     93 H93       -71.5142   25.3067  -73.2556 H         1 UNK         0.0784 
     94 H94       -73.1934   25.4555  -73.7526 H         1 UNK         0.0784 
     95 H95       -72.3253   23.9424  -74.0100 H         1 UNK         0.0784 
     96 H96       -73.5974   24.6890  -76.0994 H         1 UNK         0.3213 
     97 H97       -73.4468   25.0753  -79.6760 H         1 UNK         0.0855 
     98 H98       -73.9304   22.7009  -77.7969 H         1 UNK         0.0814 
     99 H99       -72.7726   22.7478  -79.1177 H         1 UNK         0.0814 
    100 H100      -74.4938   22.8336  -79.4602 H         1 UNK         0.0814 
    101 H101      -75.6229   24.5580  -77.8740 H         1 UNK         0.3105 
    102 H102      -76.5876   27.9648  -77.4245 H         1 UNK         0.0547 
    103 H103      -77.6294   27.2896  -79.5917 H         1 UNK         0.0837 
    104 H104      -78.7462   27.0727  -78.2528 H         1 UNK         0.0837 
    105 H105      -77.9338   25.6776  -78.9585 H         1 UNK         0.0837 
    106 H106      -77.7618   25.5784  -76.4589 H         1 UNK         0.3020 
    107 H107      -75.7134   25.2501  -73.5120 H         1 UNK         0.1245 
    108 H108      -78.6667   25.8406  -73.9610 H         1 UNK         0.0781 
    109 H109      -77.6071   27.0051  -73.2631 H         1 UNK         0.0781 
    110 H110      -75.9950   26.0368  -70.8329 H         1 UNK         0.0836 
    111 H111      -77.2404   25.9024  -69.6177 H         1 UNK         0.0836 
    112 H112      -77.8448   23.6587  -74.5558 H         1 UNK         0.3022 
    113 H113      -75.8543   21.4171  -76.4810 H         1 UNK         0.0747 
    114 H114      -76.9520   19.7833  -74.9667 H         1 UNK         0.0793 
    115 H115      -75.6614   20.6196  -74.1206 H         1 UNK         0.0793 
    116 H116      -77.3347   21.0632  -73.8144 H         1 UNK         0.0793 
    117 H117      -78.6549   21.5253  -75.8843 H         1 UNK         0.3047 
    118 H118      -79.5980   23.5920  -78.6469 H         1 UNK         0.0822 
    119 H119      -81.0443   21.6272  -79.0572 H         1 UNK         0.0807 
    120 H120      -80.0578   20.6311  -77.9871 H         1 UNK         0.0807 
    121 H121      -79.3869   21.2469  -79.4909 H         1 UNK         0.0807 
    122 H122      -81.1754   22.4070  -76.6034 H         1 UNK         0.2946 
    123 H123      -82.3729   24.2133  -75.2712 H         1 UNK         0.1144 
    124 H124      -79.9941   23.5160  -73.4178 H         1 UNK         0.0793 
    125 H125      -81.0517   22.3312  -74.1697 H         1 UNK         0.0793 
    126 H126      -81.6920   23.4224  -72.9665 H         1 UNK         0.0793 
    127 H127      -80.5556   26.2685  -75.0235 H         1 UNK         0.2896 
@<TRIPOS>BOND
     1    1    2 1    
     2    1   67 1    
     3    1   68 1    
     4    1   69 1    
     5    2    3 2    
     6    2    4 am   BACKBONE|DICT|INTERRES
     7    4    5 1    
     8    4   70 1    
     9    5    6 1    
    10    5   65 1    
    11    5   71 1    
    12    6    7 1    
    13    6   72 1    
    14    6   73 1    
    15    7    8 1    
    16    8    9 1    
    17    8   74 1    
    18    8   75 1    
    19    9   10 ar   
    20    9   14 ar   
    21   10   11 ar   
    22   10   76 1    
    23   11   12 ar   
    24   11   48 1    
    25   12   13 ar   
    26   12   77 1    
    27   13   14 ar   
    28   13   15 1    
    29   14   78 1    
    30   15   16 1    
    31   15   79 1    
    32   15   80 1    
    33   16   17 1    
    34   17   18 1    
    35   17   81 1    
    36   17   82 1    
    37   18   19 1    
    38   18   22 1    
    39   18   83 1    
    40   19   20 am   BACKBONE|DICT|INTERRES
    41   19   21 2    
    42   20   84 1    
    43   20   85 1    
    44   22   23 am   BACKBONE|DICT|INTERRES
    45   22   86 1    
    46   23   24 2    
    47   23   25 1    
    48   25   26 1    
    49   25   27 1    
    50   25   87 1    
    51   26   88 1    
    52   26   89 1    
    53   26   90 1    
    54   27   28 am   BACKBONE|DICT|INTERRES
    55   27   91 1    
    56   28   29 2    
    57   28   30 1    
    58   30   31 1    
    59   30   32 1    
    60   30   92 1    
    61   31   93 1    
    62   31   94 1    
    63   31   95 1    
    64   32   33 am   BACKBONE|DICT|INTERRES
    65   32   96 1    
    66   33   34 2    
    67   33   35 1    
    68   35   36 1    
    69   35   37 1    
    70   35   97 1    
    71   36   98 1    
    72   36   99 1    
    73   36  100 1    
    74   37   38 am   BACKBONE|DICT|INTERRES
    75   37  101 1    
    76   38   39 2    
    77   38   40 1    
    78   40   41 1    
    79   40   42 1    
    80   40  102 1    
    81   41  103 1    
    82   41  104 1    
    83   41  105 1    
    84   42   43 am   BACKBONE|DICT|INTERRES
    85   42  106 1    
    86   43   44 2    
    87   43   45 1    
    88   45   46 1    
    89   45   49 1    
    90   45  107 1    
    91   46   47 1    
    92   46  108 1    
    93   46  109 1    
    94   47   48 1    
    95   48  110 1    
    96   48  111 1    
    97   49   50 am   BACKBONE|DICT|INTERRES
    98   49  112 1    
    99   50   51 2    
   100   50   52 1    
   101   52   53 1    
   102   52   54 1    
   103   52  113 1    
   104   53  114 1    
   105   53  115 1    
   106   53  116 1    
   107   54   55 am   BACKBONE|DICT|INTERRES
   108   54  117 1    
   109   55   56 2    
   110   55   57 1    
   111   57   58 1    
   112   57   59 1    
   113   57  118 1    
   114   58  119 1    
   115   58  120 1    
   116   58  121 1    
   117   59   60 am   BACKBONE|DICT|INTERRES
   118   59  122 1    
   119   60   61 2    
   120   60   62 1    
   121   62   63 1    
   122   62   64 1    
   123   62  123 1    
   124   63  124 1    
   125   63  125 1    
   126   63  126 1    
   127   64   65 am   BACKBONE|DICT|INTERRES
   128   64  127 1    
   129   65   66 2    
@<TRIPOS>SUBSTRUCTURE
     1 UNK         1 GROUP             0       ****    0 ROOT    
