@<TRIPOS>MOLECULE
3R135
127   129    1
SMALL
USER_CHARGES


@<TRIPOS>ATOM
      1 CA        -83.0980   29.7344  -76.8007 C.3       0 UNK        -0.1998 
      2 C         -82.2360   28.9045  -75.8612 C.2       0 UNK         0.4909 
      3 O         -81.3131   28.2289  -76.3157 O.2       0 UNK        -0.5240 
      4 N         -82.5262   28.9576  -74.5553 N.am      1 UNK        -0.4739 
      5 CA        -81.8340   28.2064  -73.5014 C.3       1 UNK         0.0864 
      6 C6        -82.2253   28.7093  -72.0899 C.3       11 UNK        -0.0881 
      7 S7        -81.8392   30.4819  -71.8696 S.3       11 UNK        -0.2682 
      8 C8        -80.5325   30.4534  -70.6019 C.3       11 UNK         0.0289 
      9 C9        -79.2808   29.7184  -71.0620 C.ar      11 UNK        -0.0687 
     10 C10       -78.9353   28.4937  -70.4819 C.ar      11 UNK        -0.0823 
     11 C11       -77.7714   27.8212  -70.8648 C.ar      11 UNK        -0.0830 
     12 C12       -76.9575   28.3910  -71.8511 C.ar      11 UNK        -0.1021 
     13 C13       -77.2818   29.6169  -72.4338 C.ar      11 UNK        -0.0753 
     14 C14       -78.4483   30.2773  -72.0374 C.ar      11 UNK        -0.0933 
     15 C15       -76.3640   30.2221  -73.4866 C.3       11 UNK         0.0166 
     16 S16       -75.1800   31.4000  -72.7607 S.3       11 UNK        -0.2615 
     17 C17       -73.9921   30.2990  -71.9103 C.3       11 UNK        -0.0865 
     18 CA        -72.5774   30.3454  -72.5381 C.3       10 UNK         0.0862 
     19 C         -71.5634   29.5522  -71.6720 C.2       10 UNK         0.5551 
     20 N         -70.8137   30.2313  -70.8150 N.am      10 UNK        -0.7319 
     21 O         -71.4864   28.3271  -71.7368 O.2       10 UNK        -0.5018 
     22 N         -72.5815   29.8659  -73.9266 N.am      10 UNK        -0.4509 
     23 C         -71.6445   30.1772  -74.8292 C.2       10 UNK         0.4899 
     24 O         -70.7015   30.9391  -74.6053 O.2       10 UNK        -0.4839 
     25 CA        -71.8094   29.5356  -76.2179 C.3       9 UNK         0.0222 
     26 CB        -70.7049   29.9477  -77.2150 C.3       9 UNK        -0.1966 
     27 N         -71.9397   28.0760  -76.1571 N.am      9 UNK        -0.4218 
     28 C         -71.0395   27.1885  -75.7004 C.2       9 UNK         0.5020 
     29 O         -69.9479   27.5022  -75.2233 O.2       9 UNK        -0.5274 
     30 CA        -71.3893   25.6881  -75.8046 C.3       8 UNK         0.0270 
     31 CB        -71.6013   25.0773  -74.4089 C.3       8 UNK        -0.1976 
     32 N         -72.5597   25.4061  -76.6416 N.am      8 UNK        -0.4313 
     33 C         -72.5917   25.5168  -77.9775 C.2       8 UNK         0.5041 
     34 O         -71.6029   25.7737  -78.6651 O.2       8 UNK        -0.5577 
     35 CA        -73.9617   25.3595  -78.6632 C.3       7 UNK         0.0284 
     36 CB        -74.1759   23.9052  -79.1100 C.3       7 UNK        -0.1958 
     37 N         -75.0917   25.7993  -77.8343 N.am      7 UNK        -0.4454 
     38 C         -75.2716   27.0543  -77.3929 C.2       7 UNK         0.5089 
     39 O         -74.5110   27.9854  -77.6543 O.2       7 UNK        -0.5125 
     40 CA        -76.4586   27.3041  -76.4500 C.3       6 UNK         0.0408 
     41 CB        -77.7773   27.4031  -77.2307 C.3       6 UNK        -0.1791 
     42 N         -76.5697   26.2703  -75.4229 N.am      6 UNK        -0.4762 
     43 C         -75.6775   26.0404  -74.4495 C.2       6 UNK         0.5007 
     44 O         -74.6947   26.7544  -74.2472 O.2       6 UNK        -0.5032 
     45 CA        -75.8937   24.7630  -73.6087 C.3       5 UNK         0.0783 
     46 C46       -76.8839   24.9683  -72.4357 C.3       11 UNK        -0.0857 
     47 S47       -76.0686   25.5377  -70.9126 S.3       11 UNK        -0.2512 
     48 C48       -77.4198   26.5094  -70.1588 C.3       11 UNK         0.0225 
     49 N         -76.3334   23.6499  -74.4497 N.am      5 UNK        -0.4615 
     50 C         -75.5618   22.9802  -75.3115 C.2       4 UNK         0.5053 
     51 O         -74.3696   23.2226  -75.4934 O.2       4 UNK        -0.5105 
     52 CA        -76.2489   21.8625  -76.1156 C.3       4 UNK         0.0263 
     53 CB        -76.1691   20.5290  -75.3560 C.3       4 UNK        -0.1981 
     54 N         -77.6505   22.1627  -76.4310 N.am      4 UNK        -0.4224 
     55 C         -78.0335   23.1255  -77.2807 C.2       3 UNK         0.4895 
     56 O         -77.2476   23.8516  -77.8891 O.2       3 UNK        -0.5091 
     57 CA        -79.5470   23.3439  -77.4511 C.3       3 UNK         0.0250 
     58 CB        -80.1599   22.2397  -78.3281 C.3       3 UNK        -0.1996 
     59 N         -80.3093   23.4639  -76.1991 N.am      3 UNK        -0.4254 
     60 C         -80.0370   24.3260  -75.2096 C.2       2 UNK         0.5004 
     61 O         -79.0045   24.9941  -75.1441 O.2       2 UNK        -0.5226 
     62 CA        -81.0778   24.4835  -74.0967 C.3       2 UNK         0.0269 
     63 CB        -80.7290   23.6012  -72.8875 C.3       2 UNK        -0.1926 
     64 N         -81.0536   25.8899  -73.6986 N.am      2 UNK        -0.4687 
     65 C         -82.1170   26.6971  -73.6533 C.2       1 UNK         0.5165 
     66 O         -83.2828   26.3028  -73.7418 O.2       1 UNK        -0.5079 
     67 H67       -83.8667   30.2907  -76.2645 H         1 UNK         0.0900 
     68 H68       -82.4796   30.4484  -77.3440 H         1 UNK         0.0900 
     69 H69       -83.5906   29.0880  -77.5264 H         1 UNK         0.0900 
     70 H70       -83.2974   29.5283  -74.2404 H         1 UNK         0.2959 
     71 H71       -80.7615   28.3713  -73.6324 H         1 UNK         0.1079 
     72 H72       -81.7185   28.1256  -71.3196 H         1 UNK         0.0837 
     73 H73       -83.2942   28.5706  -71.9158 H         1 UNK         0.0837 
     74 H74       -80.2683   31.4811  -70.3487 H         1 UNK         0.0685 
     75 H75       -80.9327   30.0099  -69.6887 H         1 UNK         0.0685 
     76 H76       -79.5681   28.0682  -69.7146 H         1 UNK         0.1434 
     77 H77       -76.0540   27.8935  -72.1665 H         1 UNK         0.1329 
     78 H78       -78.7051   31.2297  -72.4809 H         1 UNK         0.1335 
     79 H79       -75.8148   29.4407  -74.0126 H         1 UNK         0.0680 
     80 H80       -76.9607   30.7378  -74.2403 H         1 UNK         0.0680 
     81 H81       -73.9535   30.6137  -70.8655 H         1 UNK         0.1032 
     82 H82       -74.3557   29.2730  -71.8964 H         1 UNK         0.1032 
     83 H83       -72.2636   31.3918  -72.5484 H         1 UNK         0.0461 
     84 H84       -70.1612   29.7312  -70.2316 H         1 UNK         0.3453 
     85 H85       -70.8763   31.2355  -70.7490 H         1 UNK         0.3453 
     86 H86       -73.2875   29.1843  -74.1654 H         1 UNK         0.2984 
     87 H87       -72.7559   29.9073  -76.6130 H         1 UNK         0.0554 
     88 H88       -70.8744   29.5070  -78.1974 H         1 UNK         0.0847 
     89 H89       -69.7148   29.6411  -76.8762 H         1 UNK         0.0847 
     90 H90       -70.6818   31.0303  -77.3453 H         1 UNK         0.0847 
     91 H91       -72.8091   27.7166  -76.5370 H         1 UNK         0.3141 
     92 H92       -70.5294   25.1916  -76.2590 H         1 UNK         0.0743 
     93 H93       -72.4206   25.5579  -73.8753 H         1 UNK         0.0784 
     94 H94       -71.8174   24.0104  -74.4685 H         1 UNK         0.0784 
     95 H95       -70.7074   25.1928  -73.7944 H         1 UNK         0.0784 
     96 H96       -73.4034   25.1134  -76.1629 H         1 UNK         0.3213 
     97 H97       -73.9507   25.9892  -79.5553 H         1 UNK         0.0855 
     98 H98       -74.2012   23.2230  -78.2607 H         1 UNK         0.0814 
     99 H99       -73.3695   23.5766  -79.7670 H         1 UNK         0.0814 
    100 H100      -75.1090   23.7912  -79.6619 H         1 UNK         0.0814 
    101 H101      -75.8033   25.1028  -77.6252 H         1 UNK         0.3105 
    102 H102      -76.2928   28.2592  -75.9503 H         1 UNK         0.0547 
    103 H103      -77.7269   28.1876  -77.9866 H         1 UNK         0.0837 
    104 H104      -78.0194   26.4707  -77.7412 H         1 UNK         0.0837 
    105 H105      -78.6096   27.6429  -76.5688 H         1 UNK         0.0837 
    106 H106      -77.3955   25.6731  -75.4669 H         1 UNK         0.3020 
    107 H107      -74.9193   24.4838  -73.2000 H         1 UNK         0.1245 
    108 H108      -77.3601   24.0223  -72.1735 H         1 UNK         0.0781 
    109 H109      -77.7000   25.6378  -72.7145 H         1 UNK         0.0781 
    110 H110      -77.1359   26.7411  -69.1314 H         1 UNK         0.0836 
    111 H111      -78.3078   25.8781  -70.0974 H         1 UNK         0.0836 
    112 H112      -77.3194   23.4354  -74.4244 H         1 UNK         0.3022 
    113 H113      -75.7066   21.7498  -77.0564 H         1 UNK         0.0747 
    114 H114      -76.5812   19.7106  -75.9467 H         1 UNK         0.0793 
    115 H115      -75.1334   20.2723  -75.1285 H         1 UNK         0.0793 
    116 H116      -76.7105   20.5676  -74.4099 H         1 UNK         0.0793 
    117 H117      -78.3598   21.6132  -75.9677 H         1 UNK         0.3047 
    118 H118      -79.6671   24.2920  -77.9797 H         1 UNK         0.0822 
    119 H119      -81.1957   22.4646  -78.5832 H         1 UNK         0.0807 
    120 H120      -80.1398   21.2684  -77.8325 H         1 UNK         0.0807 
    121 H121      -79.6138   22.1380  -79.2673 H         1 UNK         0.0807 
    122 H122      -81.1680   22.9340  -76.1517 H         1 UNK         0.2946 
    123 H123      -82.0599   24.2042  -74.4856 H         1 UNK         0.1144 
    124 H124      -81.4680   23.7135  -72.0941 H         1 UNK         0.0793 
    125 H125      -79.7540   23.8522  -72.4702 H         1 UNK         0.0793 
    126 H126      -80.7075   22.5463  -73.1640 H         1 UNK         0.0793 
    127 H127      -80.1274   26.2978  -73.7037 H         1 UNK         0.2896 
@<TRIPOS>BOND
     1    1    2 1    
     2    1   67 1    
     3    1   68 1    
     4    1   69 1    
     5    2    3 2    
     6    2    4 am   BACKBONE|DICT|INTERRES
     7    4    5 1    
     8    4   70 1    
     9    5    6 1    
    10    5   65 1    
    11    5   71 1    
    12    6    7 1    
    13    6   72 1    
    14    6   73 1    
    15    7    8 1    
    16    8    9 1    
    17    8   74 1    
    18    8   75 1    
    19    9   10 ar   
    20    9   14 ar   
    21   10   11 ar   
    22   10   76 1    
    23   11   12 ar   
    24   11   48 1    
    25   12   13 ar   
    26   12   77 1    
    27   13   14 ar   
    28   13   15 1    
    29   14   78 1    
    30   15   16 1    
    31   15   79 1    
    32   15   80 1    
    33   16   17 1    
    34   17   18 1    
    35   17   81 1    
    36   17   82 1    
    37   18   19 1    
    38   18   22 1    
    39   18   83 1    
    40   19   20 am   BACKBONE|DICT|INTERRES
    41   19   21 2    
    42   20   84 1    
    43   20   85 1    
    44   22   23 am   BACKBONE|DICT|INTERRES
    45   22   86 1    
    46   23   24 2    
    47   23   25 1    
    48   25   26 1    
    49   25   27 1    
    50   25   87 1    
    51   26   88 1    
    52   26   89 1    
    53   26   90 1    
    54   27   28 am   BACKBONE|DICT|INTERRES
    55   27   91 1    
    56   28   29 2    
    57   28   30 1    
    58   30   31 1    
    59   30   32 1    
    60   30   92 1    
    61   31   93 1    
    62   31   94 1    
    63   31   95 1    
    64   32   33 am   BACKBONE|DICT|INTERRES
    65   32   96 1    
    66   33   34 2    
    67   33   35 1    
    68   35   36 1    
    69   35   37 1    
    70   35   97 1    
    71   36   98 1    
    72   36   99 1    
    73   36  100 1    
    74   37   38 am   BACKBONE|DICT|INTERRES
    75   37  101 1    
    76   38   39 2    
    77   38   40 1    
    78   40   41 1    
    79   40   42 1    
    80   40  102 1    
    81   41  103 1    
    82   41  104 1    
    83   41  105 1    
    84   42   43 am   BACKBONE|DICT|INTERRES
    85   42  106 1    
    86   43   44 2    
    87   43   45 1    
    88   45   46 1    
    89   45   49 1    
    90   45  107 1    
    91   46   47 1    
    92   46  108 1    
    93   46  109 1    
    94   47   48 1    
    95   48  110 1    
    96   48  111 1    
    97   49   50 am   BACKBONE|DICT|INTERRES
    98   49  112 1    
    99   50   51 2    
   100   50   52 1    
   101   52   53 1    
   102   52   54 1    
   103   52  113 1    
   104   53  114 1    
   105   53  115 1    
   106   53  116 1    
   107   54   55 am   BACKBONE|DICT|INTERRES
   108   54  117 1    
   109   55   56 2    
   110   55   57 1    
   111   57   58 1    
   112   57   59 1    
   113   57  118 1    
   114   58  119 1    
   115   58  120 1    
   116   58  121 1    
   117   59   60 am   BACKBONE|DICT|INTERRES
   118   59  122 1    
   119   60   61 2    
   120   60   62 1    
   121   62   63 1    
   122   62   64 1    
   123   62  123 1    
   124   63  124 1    
   125   63  125 1    
   126   63  126 1    
   127   64   65 am   BACKBONE|DICT|INTERRES
   128   64  127 1    
   129   65   66 2    
@<TRIPOS>SUBSTRUCTURE
     1 UNK         1 GROUP             0       ****    0 ROOT    
