@<TRIPOS>MOLECULE
3R135
127   129    1
SMALL
USER_CHARGES


@<TRIPOS>ATOM
      1 CA        -76.6216   27.6374  -70.8053 C.3       0 UNK        -0.1998 
      2 C         -77.7996   26.8361  -70.2831 C.2       0 UNK         0.4909 
      3 O         -77.6090   25.8911  -69.5170 O.2       0 UNK        -0.5240 
      4 N         -79.0190   27.2124  -70.6883 N.am      1 UNK        -0.4739 
      5 CA        -80.2683   26.5692  -70.2575 C.3       1 UNK         0.0864 
      6 C6        -81.5106   27.4652  -70.4915 C.3       11 UNK        -0.0881 
      7 S7        -81.3387   29.1240  -69.7418 S.3       11 UNK        -0.2682 
      8 C8        -81.4175   30.2237  -71.1934 C.3       11 UNK         0.0289 
      9 C9        -80.1827   30.1120  -72.0781 C.ar      11 UNK        -0.0687 
     10 C10       -80.1958   29.2753  -73.1985 C.ar      11 UNK        -0.0823 
     11 C11       -79.0723   29.1687  -74.0218 C.ar      11 UNK        -0.0830 
     12 C12       -77.9341   29.9245  -73.7248 C.ar      11 UNK        -0.1021 
     13 C13       -77.9152   30.7864  -72.6259 C.ar      11 UNK        -0.0753 
     14 C14       -79.0383   30.8667  -71.7958 C.ar      11 UNK        -0.0933 
     15 C15       -76.6927   31.6577  -72.3794 C.3       11 UNK         0.0166 
     16 S16       -75.2393   30.6690  -71.9130 S.3       11 UNK        -0.2615 
     17 C17       -73.8998   31.8726  -72.2139 C.3       11 UNK        -0.0865 
     18 CA        -72.5003   31.2248  -72.4190 C.3       10 UNK         0.0862 
     19 C         -71.9019   30.6503  -71.1075 C.2       10 UNK         0.5551 
     20 N         -71.5640   31.5094  -70.1549 N.am      10 UNK        -0.7319 
     21 O         -71.7430   29.4434  -70.9367 O.2       10 UNK        -0.5018 
     22 N         -72.4670   30.2413  -73.5101 N.am      10 UNK        -0.4509 
     23 C         -72.5250   30.5169  -74.8154 C.2       10 UNK         0.4899 
     24 O         -72.6641   31.6583  -75.2567 O.2       10 UNK        -0.4839 
     25 CA        -72.3930   29.3543  -75.8221 C.3       9 UNK         0.0222 
     26 CB        -70.9210   29.1490  -76.2279 C.3       9 UNK        -0.1966 
     27 N         -73.0129   28.0742  -75.4480 N.am      9 UNK        -0.4218 
     28 C         -72.7111   27.2475  -74.4351 C.2       9 UNK         0.5020 
     29 O         -71.8774   27.4926  -73.5636 O.2       9 UNK        -0.5274 
     30 CA        -73.4486   25.8978  -74.4077 C.3       8 UNK         0.0270 
     31 CB        -74.9225   26.0807  -74.0079 C.3       8 UNK        -0.1976 
     32 N         -73.3599   25.1853  -75.6852 N.am      8 UNK        -0.4313 
     33 C         -72.2221   24.7405  -76.2418 C.2       8 UNK         0.5041 
     34 O         -71.1139   24.8268  -75.7117 O.2       8 UNK        -0.5577 
     35 CA        -72.3346   24.0929  -77.6304 C.3       7 UNK         0.0284 
     36 CB        -72.7122   22.6071  -77.5121 C.3       7 UNK        -0.1958 
     37 N         -73.3111   24.7930  -78.4666 N.am      7 UNK        -0.4454 
     38 C         -73.0418   25.9062  -79.1643 C.2       7 UNK         0.5089 
     39 O         -71.9210   26.4088  -79.2470 O.2       7 UNK        -0.5125 
     40 CA        -74.2196   26.5826  -79.8920 C.3       6 UNK         0.0408 
     41 CB        -74.3123   26.0826  -81.3421 C.3       6 UNK        -0.1791 
     42 N         -75.5105   26.3838  -79.2267 N.am      6 UNK        -0.4762 
     43 C         -75.8330   26.8888  -78.0269 C.2       6 UNK         0.5007 
     44 O         -75.0815   27.6022  -77.3613 O.2       6 UNK        -0.5032 
     45 CA        -77.1896   26.4571  -77.4352 C.3       5 UNK         0.0783 
     46 C46       -78.3395   27.4343  -77.7843 C.3       11 UNK        -0.0857 
     47 S47       -78.3476   28.9075  -76.7155 S.3       11 UNK        -0.2512 
     48 C48       -79.0886   28.2065  -75.2021 C.3       11 UNK         0.0225 
     49 N         -77.5535   25.0749  -77.7538 N.am      5 UNK        -0.4615 
     50 C         -76.8660   23.9909  -77.3802 C.2       4 UNK         0.5053 
     51 O         -75.7643   24.0468  -76.8312 O.2       4 UNK        -0.5105 
     52 CA        -77.5458   22.6331  -77.6385 C.3       4 UNK         0.0263 
     53 CB        -76.6601   21.4424  -77.2281 C.3       4 UNK        -0.1981 
     54 N         -78.8239   22.5450  -76.9260 N.am      4 UNK        -0.4224 
     55 C         -79.9732   23.1180  -77.3130 C.2       3 UNK         0.4895 
     56 O         -80.0975   23.7505  -78.3630 O.2       3 UNK        -0.5091 
     57 CA        -81.1734   23.0000  -76.3571 C.3       3 UNK         0.0250 
     58 CB        -82.0216   21.7673  -76.7090 C.3       3 UNK        -0.1996 
     59 N         -80.7879   22.9412  -74.9424 N.am      3 UNK        -0.4254 
     60 C         -80.2578   23.9644  -74.2577 C.2       2 UNK         0.5004 
     61 O         -80.0370   25.0772  -74.7413 O.2       2 UNK        -0.5226 
     62 CA        -79.8768   23.6793  -72.8004 C.3       2 UNK         0.0269 
     63 CB        -78.4882   23.0190  -72.7341 C.3       2 UNK        -0.1926 
     64 N         -79.8348   24.9325  -72.0488 N.am      2 UNK        -0.4687 
     65 C         -80.4684   25.1754  -70.8938 C.2       1 UNK         0.5165 
     66 O         -81.1826   24.3503  -70.3216 O.2       1 UNK        -0.5079 
     67 H67       -76.7894   27.9641  -71.8312 H         1 UNK         0.0900 
     68 H68       -75.7100   27.0415  -70.7823 H         1 UNK         0.0900 
     69 H69       -76.4662   28.5176  -70.1825 H         1 UNK         0.0900 
     70 H70       -79.1235   28.0235  -71.2840 H         1 UNK         0.2959 
     71 H71       -80.1898   26.4022  -69.1805 H         1 UNK         0.1079 
     72 H72       -81.7317   27.5543  -71.5549 H         1 UNK         0.0837 
     73 H73       -82.3928   26.9991  -70.0484 H         1 UNK         0.0837 
     74 H74       -82.3213   30.0071  -71.7650 H         1 UNK         0.0685 
     75 H75       -81.5223   31.2524  -70.8451 H         1 UNK         0.0685 
     76 H76       -81.0823   28.7013  -73.4304 H         1 UNK         0.1434 
     77 H77       -77.0576   29.8521  -74.3546 H         1 UNK         0.1329 
     78 H78       -79.0308   31.5288  -70.9406 H         1 UNK         0.1335 
     79 H79       -76.8876   32.3956  -71.5998 H         1 UNK         0.0680 
     80 H80       -76.4804   32.2174  -73.2915 H         1 UNK         0.0680 
     81 H81       -73.8816   32.5884  -71.3903 H         1 UNK         0.1032 
     82 H82       -74.1483   32.4594  -73.0990 H         1 UNK         0.1032 
     83 H83       -71.8141   32.0214  -72.7140 H         1 UNK         0.0461 
     84 H84       -71.6796   32.5030  -70.2797 H         1 UNK         0.3453 
     85 H85       -71.1765   31.1558  -69.2941 H         1 UNK         0.3453 
     86 H86       -72.2909   29.2799  -73.2222 H         1 UNK         0.2984 
     87 H87       -72.9313   29.6694  -76.7176 H         1 UNK         0.0554 
     88 H88       -70.8298   28.4055  -77.0203 H         1 UNK         0.0847 
     89 H89       -70.3099   28.8191  -75.3871 H         1 UNK         0.0847 
     90 H90       -70.4854   30.0767  -76.6015 H         1 UNK         0.0847 
     91 H91       -73.7531   27.7789  -76.0836 H         1 UNK         0.3141 
     92 H92       -72.9699   25.2710  -73.6524 H         1 UNK         0.0743 
     93 H93       -75.4510   26.7466  -74.6890 H         1 UNK         0.0784 
     94 H94       -75.4533   25.1286  -73.9854 H         1 UNK         0.0784 
     95 H95       -74.9946   26.5173  -73.0124 H         1 UNK         0.0784 
     96 H96       -74.2346   24.9818  -76.1614 H         1 UNK         0.3213 
     97 H97       -71.3538   24.1503  -78.1082 H         1 UNK         0.0855 
     98 H98       -73.6516   22.4651  -76.9783 H         1 UNK         0.0814 
     99 H99       -71.9456   22.0574  -76.9645 H         1 UNK         0.0814 
    100 H100      -72.8071   22.1404  -78.4926 H         1 UNK         0.0814 
    101 H101      -74.2697   24.4759  -78.4074 H         1 UNK         0.3105 
    102 H102      -74.0175   27.6557  -79.9148 H         1 UNK         0.0547 
    103 H103      -73.3714   26.2437  -81.8704 H         1 UNK         0.0837 
    104 H104      -74.5330   25.0155  -81.3899 H         1 UNK         0.0837 
    105 H105      -75.0867   26.6123  -81.8970 H         1 UNK         0.0837 
    106 H106      -76.1846   25.7955  -79.6958 H         1 UNK         0.3020 
    107 H107      -77.0512   26.4625  -76.3541 H         1 UNK         0.1245 
    108 H108      -79.3082   26.9444  -77.6667 H         1 UNK         0.0781 
    109 H109      -78.2934   27.7473  -78.8292 H         1 UNK         0.0781 
    110 H110      -78.5472   27.3098  -74.9027 H         1 UNK         0.0836 
    111 H111      -80.1081   27.8898  -75.4287 H         1 UNK         0.0836 
    112 H112      -78.4649   24.9240  -78.1744 H         1 UNK         0.3022 
    113 H113      -77.7314   22.5574  -78.7121 H         1 UNK         0.0747 
    114 H114      -77.1550   20.4919  -77.4280 H         1 UNK         0.0793 
    115 H115      -75.7256   21.4412  -77.7901 H         1 UNK         0.0793 
    116 H116      -76.4050   21.4721  -76.1678 H         1 UNK         0.0793 
    117 H117      -78.8086   22.0723  -76.0346 H         1 UNK         0.3047 
    118 H118      -81.7904   23.8902  -76.4997 H         1 UNK         0.0822 
    119 H119      -82.9227   21.7174  -76.0973 H         1 UNK         0.0807 
    120 H120      -82.3424   21.7996  -77.7514 H         1 UNK         0.0807 
    121 H121      -81.4668   20.8389  -76.5679 H         1 UNK         0.0807 
    122 H122      -80.9363   22.0603  -74.4704 H         1 UNK         0.2946 
    123 H123      -80.6216   23.0025  -72.3750 H         1 UNK         0.1144 
    124 H124      -78.4800   22.0607  -73.2547 H         1 UNK         0.0793 
    125 H125      -78.1918   22.8278  -71.7025 H         1 UNK         0.0793 
    126 H126      -77.7204   23.6462  -73.1898 H         1 UNK         0.0793 
    127 H127      -79.3266   25.6868  -72.4892 H         1 UNK         0.2896 
@<TRIPOS>BOND
     1    1    2 1    
     2    1   67 1    
     3    1   68 1    
     4    1   69 1    
     5    2    3 2    
     6    2    4 am   BACKBONE|DICT|INTERRES
     7    4    5 1    
     8    4   70 1    
     9    5    6 1    
    10    5   65 1    
    11    5   71 1    
    12    6    7 1    
    13    6   72 1    
    14    6   73 1    
    15    7    8 1    
    16    8    9 1    
    17    8   74 1    
    18    8   75 1    
    19    9   10 ar   
    20    9   14 ar   
    21   10   11 ar   
    22   10   76 1    
    23   11   12 ar   
    24   11   48 1    
    25   12   13 ar   
    26   12   77 1    
    27   13   14 ar   
    28   13   15 1    
    29   14   78 1    
    30   15   16 1    
    31   15   79 1    
    32   15   80 1    
    33   16   17 1    
    34   17   18 1    
    35   17   81 1    
    36   17   82 1    
    37   18   19 1    
    38   18   22 1    
    39   18   83 1    
    40   19   20 am   BACKBONE|DICT|INTERRES
    41   19   21 2    
    42   20   84 1    
    43   20   85 1    
    44   22   23 am   BACKBONE|DICT|INTERRES
    45   22   86 1    
    46   23   24 2    
    47   23   25 1    
    48   25   26 1    
    49   25   27 1    
    50   25   87 1    
    51   26   88 1    
    52   26   89 1    
    53   26   90 1    
    54   27   28 am   BACKBONE|DICT|INTERRES
    55   27   91 1    
    56   28   29 2    
    57   28   30 1    
    58   30   31 1    
    59   30   32 1    
    60   30   92 1    
    61   31   93 1    
    62   31   94 1    
    63   31   95 1    
    64   32   33 am   BACKBONE|DICT|INTERRES
    65   32   96 1    
    66   33   34 2    
    67   33   35 1    
    68   35   36 1    
    69   35   37 1    
    70   35   97 1    
    71   36   98 1    
    72   36   99 1    
    73   36  100 1    
    74   37   38 am   BACKBONE|DICT|INTERRES
    75   37  101 1    
    76   38   39 2    
    77   38   40 1    
    78   40   41 1    
    79   40   42 1    
    80   40  102 1    
    81   41  103 1    
    82   41  104 1    
    83   41  105 1    
    84   42   43 am   BACKBONE|DICT|INTERRES
    85   42  106 1    
    86   43   44 2    
    87   43   45 1    
    88   45   46 1    
    89   45   49 1    
    90   45  107 1    
    91   46   47 1    
    92   46  108 1    
    93   46  109 1    
    94   47   48 1    
    95   48  110 1    
    96   48  111 1    
    97   49   50 am   BACKBONE|DICT|INTERRES
    98   49  112 1    
    99   50   51 2    
   100   50   52 1    
   101   52   53 1    
   102   52   54 1    
   103   52  113 1    
   104   53  114 1    
   105   53  115 1    
   106   53  116 1    
   107   54   55 am   BACKBONE|DICT|INTERRES
   108   54  117 1    
   109   55   56 2    
   110   55   57 1    
   111   57   58 1    
   112   57   59 1    
   113   57  118 1    
   114   58  119 1    
   115   58  120 1    
   116   58  121 1    
   117   59   60 am   BACKBONE|DICT|INTERRES
   118   59  122 1    
   119   60   61 2    
   120   60   62 1    
   121   62   63 1    
   122   62   64 1    
   123   62  123 1    
   124   63  124 1    
   125   63  125 1    
   126   63  126 1    
   127   64   65 am   BACKBONE|DICT|INTERRES
   128   64  127 1    
   129   65   66 2    
@<TRIPOS>SUBSTRUCTURE
     1 UNK         1 GROUP             0       ****    0 ROOT    
