@<TRIPOS>MOLECULE
3R135
127   129    1
SMALL
USER_CHARGES


@<TRIPOS>ATOM
      1 CA        -78.4643   30.6904  -78.6842 C.3       0 UNK        -0.1998 
      2 C         -78.4351   29.4812  -77.7622 C.2       0 UNK         0.4909 
      3 O         -77.7058   28.5279  -78.0353 O.2       0 UNK        -0.5240 
      4 N         -79.2003   29.5272  -76.6660 N.am      1 UNK        -0.4739 
      5 CA        -79.3487   28.4371  -75.6939 C.3       1 UNK         0.0864 
      6 C6        -79.8532   28.9600  -74.3239 C.3       11 UNK        -0.0881 
      7 S7        -78.7632   30.2331  -73.6008 S.3       11 UNK        -0.2682 
      8 C8        -79.0873   30.0330  -71.8199 C.3       11 UNK         0.0289 
      9 C9        -78.0671   29.1178  -71.1578 C.ar      11 UNK        -0.0687 
     10 C10       -78.2818   27.7383  -71.0977 C.ar      11 UNK        -0.0823 
     11 C11       -77.3458   26.9035  -70.4807 C.ar      11 UNK        -0.0830 
     12 C12       -76.1971   27.4596  -69.9118 C.ar      11 UNK        -0.1021 
     13 C13       -75.9618   28.8368  -69.9649 C.ar      11 UNK        -0.0753 
     14 C14       -76.9096   29.6600  -70.5894 C.ar      11 UNK        -0.0933 
     15 C15       -74.6750   29.3707  -69.3315 C.3       11 UNK         0.0166 
     16 S16       -74.2161   31.0802  -69.7900 S.3       11 UNK        -0.2615 
     17 C17       -72.3926   30.9914  -69.7192 C.3       11 UNK        -0.0865 
     18 CA        -71.7429   30.9635  -71.1283 C.3       10 UNK         0.0862 
     19 C         -70.1953   30.9023  -71.0107 C.2       10 UNK         0.5551 
     20 N         -69.5297   32.0486  -70.9815 N.am      10 UNK        -0.7319 
     21 O         -69.6027   29.8308  -70.8972 O.2       10 UNK        -0.5018 
     22 N         -72.3022   29.8865  -71.9593 N.am      10 UNK        -0.4509 
     23 C         -72.0716   29.7044  -73.2643 C.2       10 UNK         0.4899 
     24 O         -71.3317   30.4255  -73.9371 O.2       10 UNK        -0.4839 
     25 CA        -72.7822   28.5163  -73.9470 C.3       9 UNK         0.0222 
     26 CB        -73.8119   27.7791  -73.0574 C.3       9 UNK        -0.1966 
     27 N         -73.3944   28.9127  -75.2191 N.am      9 UNK        -0.4218 
     28 C         -74.3403   29.8411  -75.4193 C.2       9 UNK         0.5020 
     29 O         -74.8594   30.5011  -74.5187 O.2       9 UNK        -0.5274 
     30 CA        -74.8030   30.0861  -76.8689 C.3       8 UNK         0.0270 
     31 CB        -73.9678   31.1934  -77.5411 C.3       8 UNK        -0.1976 
     32 N         -74.8899   28.8840  -77.7149 N.am      8 UNK        -0.4313 
     33 C         -73.9029   28.0907  -78.1597 C.2       8 UNK         0.5041 
     34 O         -72.7140   28.2659  -77.8864 O.2       8 UNK        -0.5577 
     35 CA        -74.3243   26.8664  -78.9875 C.3       7 UNK         0.0284 
     36 CB        -73.1899   25.8363  -79.1681 C.3       7 UNK        -0.1958 
     37 N         -75.4789   26.2440  -78.3504 N.am      7 UNK        -0.4454 
     38 C         -76.3914   25.4583  -78.9221 C.2       7 UNK         0.5089 
     39 O         -76.3316   25.0948  -80.0984 O.2       7 UNK        -0.5125 
     40 CA        -77.5689   25.0111  -78.0241 C.3       6 UNK         0.0408 
     41 CB        -78.4765   23.9885  -78.7313 C.3       6 UNK        -0.1791 
     42 N         -77.1700   24.4763  -76.7116 N.am      6 UNK        -0.4762 
     43 C         -76.6454   25.1732  -75.6882 C.2       6 UNK         0.5007 
     44 O         -76.3927   26.3759  -75.7606 O.2       6 UNK        -0.5032 
     45 CA        -76.3504   24.4403  -74.3634 C.3       5 UNK         0.0783 
     46 C46       -76.9034   25.2437  -73.1595 C.3       11 UNK        -0.0857 
     47 S47       -76.4273   24.5197  -71.5565 S.3       11 UNK        -0.2512 
     48 C48       -77.5649   25.3975  -70.4374 C.3       11 UNK         0.0225 
     49 N         -76.8631   23.0688  -74.3759 N.am      5 UNK        -0.4615 
     50 C         -76.1412   21.9771  -74.6576 C.2       4 UNK         0.5053 
     51 O         -74.9497   22.0100  -74.9654 O.2       4 UNK        -0.5105 
     52 CA        -76.8575   20.6136  -74.5882 C.3       4 UNK         0.0263 
     53 CB        -76.4605   19.8674  -73.3038 C.3       4 UNK        -0.1981 
     54 N         -78.3193   20.7082  -74.6511 N.am      4 UNK        -0.4224 
     55 C         -79.0131   21.0982  -75.7284 C.2       3 UNK         0.4895 
     56 O         -78.4888   21.3703  -76.8090 O.2       3 UNK        -0.5091 
     57 CA        -80.5402   21.2513  -75.5786 C.3       3 UNK         0.0250 
     58 CB        -81.0901   20.8436  -74.1914 C.3       3 UNK        -0.1996 
     59 N         -80.9809   22.6097  -75.9222 N.am      3 UNK        -0.4254 
     60 C         -80.5552   23.7546  -75.3678 C.2       2 UNK         0.5004 
     61 O         -79.7286   23.8197  -74.4537 O.2       2 UNK        -0.5226 
     62 CA        -81.1732   25.0445  -75.9170 C.3       2 UNK         0.0269 
     63 CB        -82.5683   25.2793  -75.3061 C.3       2 UNK        -0.1926 
     64 N         -80.2949   26.1707  -75.6036 N.am      2 UNK        -0.4687 
     65 C         -80.3052   27.3503  -76.2346 C.2       1 UNK         0.5165 
     66 O         -81.0658   27.6039  -77.1735 O.2       1 UNK        -0.5079 
     67 H67       -77.4606   31.0980  -78.8016 H         1 UNK         0.0900 
     68 H68       -78.8314   30.4003  -79.6683 H         1 UNK         0.0900 
     69 H69       -79.1088   31.4810  -78.3002 H         1 UNK         0.0900 
     70 H70       -79.7815   30.3356  -76.4990 H         1 UNK         0.2959 
     71 H71       -78.3698   27.9787  -75.5461 H         1 UNK         0.1079 
     72 H72       -79.9382   28.1347  -73.6158 H         1 UNK         0.0837 
     73 H73       -80.8549   29.3845  -74.4172 H         1 UNK         0.0837 
     74 H74       -80.0996   29.6592  -71.6589 H         1 UNK         0.0685 
     75 H75       -79.0554   31.0176  -71.3510 H         1 UNK         0.0685 
     76 H76       -79.1750   27.3137  -71.5336 H         1 UNK         0.1434 
     77 H77       -75.4745   26.8093  -69.4370 H         1 UNK         0.1329 
     78 H78       -76.7588   30.7285  -70.6419 H         1 UNK         0.1335 
     79 H79       -73.8603   28.6994  -69.6059 H         1 UNK         0.0680 
     80 H80       -74.7666   29.3163  -68.2459 H         1 UNK         0.0680 
     81 H81       -72.0823   30.1266  -69.1294 H         1 UNK         0.1032 
     82 H82       -72.0429   31.8648  -69.1654 H         1 UNK         0.1032 
     83 H83       -72.0003   31.8992  -71.6292 H         1 UNK         0.0461 
     84 H84       -70.0085   32.9322  -71.0636 H         1 UNK         0.3453 
     85 H85       -68.5260   32.0307  -70.8882 H         1 UNK         0.3453 
     86 H86       -72.9395   29.2596  -71.4944 H         1 UNK         0.2984 
     87 H87       -71.9977   27.8022  -74.2005 H         1 UNK         0.0554 
     88 H88       -73.3458   27.3562  -72.1668 H         1 UNK         0.0847 
     89 H89       -74.2623   26.9481  -73.5993 H         1 UNK         0.0847 
     90 H90       -74.6223   28.4343  -72.7334 H         1 UNK         0.0847 
     91 H91       -72.9884   28.5067  -76.0602 H         1 UNK         0.3141 
     92 H92       -75.8251   30.4585  -76.7941 H         1 UNK         0.0743 
     93 H93       -74.0023   32.1132  -76.9557 H         1 UNK         0.0784 
     94 H94       -72.9186   30.9127  -77.6373 H         1 UNK         0.0784 
     95 H95       -74.3467   31.4273  -78.5359 H         1 UNK         0.0784 
     96 H96       -75.8467   28.6133  -77.9448 H         1 UNK         0.3213 
     97 H97       -74.6222   27.2363  -79.9708 H         1 UNK         0.0855 
     98 H98       -72.8557   25.4375  -78.2096 H         1 UNK         0.0814 
     99 H99       -72.3250   26.2876  -79.6558 H         1 UNK         0.0814 
    100 H100      -73.5059   24.9975  -79.7882 H         1 UNK         0.0814 
    101 H101      -75.6454   26.4914  -77.3745 H         1 UNK         0.3105 
    102 H102      -78.1717   25.9017  -77.8424 H         1 UNK         0.0547 
    103 H103      -79.3376   23.7244  -78.1209 H         1 UNK         0.0837 
    104 H104      -77.9383   23.0689  -78.9641 H         1 UNK         0.0837 
    105 H105      -78.8624   24.3881  -79.6700 H         1 UNK         0.0837 
    106 H106      -77.3277   23.4863  -76.5728 H         1 UNK         0.3020 
    107 H107      -75.2621   24.4206  -74.2713 H         1 UNK         0.1245 
    108 H108      -77.9908   25.3110  -73.2063 H         1 UNK         0.0781 
    109 H109      -76.5359   26.2715  -73.1729 H         1 UNK         0.0781 
    110 H110      -77.4103   25.0375  -69.4193 H         1 UNK         0.0836 
    111 H111      -78.5936   25.1438  -70.6986 H         1 UNK         0.0836 
    112 H112      -77.8534   22.9778  -74.1745 H         1 UNK         0.3022 
    113 H113      -76.5201   20.0259  -75.4447 H         1 UNK         0.0747 
    114 H114      -76.8990   18.8698  -73.2711 H         1 UNK         0.0793 
    115 H115      -75.3781   19.7452  -73.2419 H         1 UNK         0.0793 
    116 H116      -76.7784   20.4060  -72.4099 H         1 UNK         0.0793 
    117 H117      -78.8248   20.5214  -73.7972 H         1 UNK         0.3047 
    118 H118      -80.9826   20.5832  -76.3190 H         1 UNK         0.0822 
    119 H119      -82.1767   20.9267  -74.1662 H         1 UNK         0.0807 
    120 H120      -80.6984   21.4701  -73.3889 H         1 UNK         0.0807 
    121 H121      -80.8494   19.8057  -73.9571 H         1 UNK         0.0807 
    122 H122      -81.6495   22.6644  -76.6780 H         1 UNK         0.2946 
    123 H123      -81.2583   24.9512  -77.0021 H         1 UNK         0.1144 
    124 H124      -82.5166   25.3959  -74.2228 H         1 UNK         0.0793 
    125 H125      -83.2364   24.4422  -75.5127 H         1 UNK         0.0793 
    126 H126      -83.0399   26.1726  -75.7159 H         1 UNK         0.0793 
    127 H127      -79.6365   25.9839  -74.8581 H         1 UNK         0.2896 
@<TRIPOS>BOND
     1    1    2 1    
     2    1   67 1    
     3    1   68 1    
     4    1   69 1    
     5    2    3 2    
     6    2    4 am   BACKBONE|DICT|INTERRES
     7    4    5 1    
     8    4   70 1    
     9    5    6 1    
    10    5   65 1    
    11    5   71 1    
    12    6    7 1    
    13    6   72 1    
    14    6   73 1    
    15    7    8 1    
    16    8    9 1    
    17    8   74 1    
    18    8   75 1    
    19    9   10 ar   
    20    9   14 ar   
    21   10   11 ar   
    22   10   76 1    
    23   11   12 ar   
    24   11   48 1    
    25   12   13 ar   
    26   12   77 1    
    27   13   14 ar   
    28   13   15 1    
    29   14   78 1    
    30   15   16 1    
    31   15   79 1    
    32   15   80 1    
    33   16   17 1    
    34   17   18 1    
    35   17   81 1    
    36   17   82 1    
    37   18   19 1    
    38   18   22 1    
    39   18   83 1    
    40   19   20 am   BACKBONE|DICT|INTERRES
    41   19   21 2    
    42   20   84 1    
    43   20   85 1    
    44   22   23 am   BACKBONE|DICT|INTERRES
    45   22   86 1    
    46   23   24 2    
    47   23   25 1    
    48   25   26 1    
    49   25   27 1    
    50   25   87 1    
    51   26   88 1    
    52   26   89 1    
    53   26   90 1    
    54   27   28 am   BACKBONE|DICT|INTERRES
    55   27   91 1    
    56   28   29 2    
    57   28   30 1    
    58   30   31 1    
    59   30   32 1    
    60   30   92 1    
    61   31   93 1    
    62   31   94 1    
    63   31   95 1    
    64   32   33 am   BACKBONE|DICT|INTERRES
    65   32   96 1    
    66   33   34 2    
    67   33   35 1    
    68   35   36 1    
    69   35   37 1    
    70   35   97 1    
    71   36   98 1    
    72   36   99 1    
    73   36  100 1    
    74   37   38 am   BACKBONE|DICT|INTERRES
    75   37  101 1    
    76   38   39 2    
    77   38   40 1    
    78   40   41 1    
    79   40   42 1    
    80   40  102 1    
    81   41  103 1    
    82   41  104 1    
    83   41  105 1    
    84   42   43 am   BACKBONE|DICT|INTERRES
    85   42  106 1    
    86   43   44 2    
    87   43   45 1    
    88   45   46 1    
    89   45   49 1    
    90   45  107 1    
    91   46   47 1    
    92   46  108 1    
    93   46  109 1    
    94   47   48 1    
    95   48  110 1    
    96   48  111 1    
    97   49   50 am   BACKBONE|DICT|INTERRES
    98   49  112 1    
    99   50   51 2    
   100   50   52 1    
   101   52   53 1    
   102   52   54 1    
   103   52  113 1    
   104   53  114 1    
   105   53  115 1    
   106   53  116 1    
   107   54   55 am   BACKBONE|DICT|INTERRES
   108   54  117 1    
   109   55   56 2    
   110   55   57 1    
   111   57   58 1    
   112   57   59 1    
   113   57  118 1    
   114   58  119 1    
   115   58  120 1    
   116   58  121 1    
   117   59   60 am   BACKBONE|DICT|INTERRES
   118   59  122 1    
   119   60   61 2    
   120   60   62 1    
   121   62   63 1    
   122   62   64 1    
   123   62  123 1    
   124   63  124 1    
   125   63  125 1    
   126   63  126 1    
   127   64   65 am   BACKBONE|DICT|INTERRES
   128   64  127 1    
   129   65   66 2    
@<TRIPOS>SUBSTRUCTURE
     1 UNK         1 GROUP             0       ****    0 ROOT    
