@<TRIPOS>MOLECULE
3R135
127   129    1
SMALL
USER_CHARGES


@<TRIPOS>ATOM
      1 CA        -78.1787   30.3606  -76.3500 C.3       0 UNK        -0.1998 
      2 C         -79.4859   29.8727  -75.7409 C.2       0 UNK         0.4909 
      3 O         -80.5530   30.2259  -76.2409 O.2       0 UNK        -0.5240 
      4 N         -79.3998   29.0849  -74.6593 N.am      1 UNK        -0.4739 
      5 CA        -80.5155   28.5372  -73.8772 C.3       1 UNK         0.0864 
      6 C6        -81.4240   29.6415  -73.2566 C.3       11 UNK        -0.0881 
      7 S7        -82.0251   29.1847  -71.5943 S.3       11 UNK        -0.2682 
      8 C8        -80.7891   29.9930  -70.5209 C.3       11 UNK         0.0289 
      9 C9        -79.3920   29.4447  -70.7736 C.ar      11 UNK        -0.0687 
     10 C10       -79.0310   28.1894  -70.2766 C.ar      11 UNK        -0.0823 
     11 C11       -77.7826   27.6342  -70.5739 C.ar      11 UNK        -0.0830 
     12 C12       -76.8917   28.3589  -71.3761 C.ar      11 UNK        -0.1021 
     13 C13       -77.2292   29.6266  -71.8565 C.ar      11 UNK        -0.0753 
     14 C14       -78.4775   30.1694  -71.5434 C.ar      11 UNK        -0.0933 
     15 C15       -76.2674   30.3921  -72.7521 C.3       11 UNK         0.0166 
     16 S16       -75.1384   31.4672  -71.8081 S.3       11 UNK        -0.2615 
     17 C17       -73.8606   30.2955  -71.2281 C.3       11 UNK        -0.0865 
     18 CA        -72.6340   30.2096  -72.1750 C.3       10 UNK         0.0862 
     19 C         -71.5427   29.2927  -71.5689 C.2       10 UNK         0.5551 
     20 N         -70.5894   29.8592  -70.8426 N.am      10 UNK        -0.7319 
     21 O         -71.5743   28.0725  -71.7191 O.2       10 UNK        -0.5018 
     22 N         -73.0132   29.7108  -73.5013 N.am      10 UNK        -0.4509 
     23 C         -72.9194   30.3873  -74.6503 C.2       10 UNK         0.4899 
     24 O         -72.5017   31.5431  -74.7408 O.2       10 UNK        -0.4839 
     25 CA        -73.3960   29.6379  -75.9085 C.3       9 UNK         0.0222 
     26 CB        -72.9525   30.3114  -77.2243 C.3       9 UNK        -0.1966 
     27 N         -73.0376   28.2154  -75.8987 N.am      9 UNK        -0.4218 
     28 C         -71.8071   27.6790  -75.8978 C.2       9 UNK         0.5020 
     29 O         -70.7626   28.3315  -75.8743 O.2       9 UNK        -0.5274 
     30 CA        -71.7298   26.1423  -75.9436 C.3       8 UNK         0.0270 
     31 CB        -71.7768   25.5618  -74.5207 C.3       8 UNK        -0.1976 
     32 N         -72.7945   25.5431  -76.7544 N.am      8 UNK        -0.4313 
     33 C         -72.9158   25.6839  -78.0833 C.2       8 UNK         0.5041 
     34 O         -72.0786   26.2418  -78.7938 O.2       8 UNK        -0.5577 
     35 CA        -74.2046   25.1395  -78.7261 C.3       7 UNK         0.0284 
     36 CB        -74.0979   23.6272  -78.9760 C.3       7 UNK        -0.1958 
     37 N         -75.3995   25.4382  -77.9291 N.am      7 UNK        -0.4454 
     38 C         -75.8684   26.6763  -77.7121 C.2       7 UNK         0.5089 
     39 O         -75.3887   27.6916  -78.2143 O.2       7 UNK        -0.5125 
     40 CA        -77.0567   26.8176  -76.7496 C.3       6 UNK         0.0408 
     41 CB        -78.3843   26.6562  -77.5056 C.3       6 UNK        -0.1791 
     42 N         -76.9835   25.8874  -75.6203 N.am      6 UNK        -0.4762 
     43 C         -76.0856   25.9777  -74.6263 C.2       6 UNK         0.5007 
     44 O         -75.2908   26.9120  -74.5095 O.2       6 UNK        -0.5032 
     45 CA        -76.0243   24.7928  -73.6405 C.3       5 UNK         0.0783 
     46 C46       -77.0180   24.9476  -72.4564 C.3       11 UNK        -0.0857 
     47 S47       -76.1519   25.3317  -70.9007 S.3       11 UNK        -0.2512 
     48 C48       -77.4330   26.2631  -69.9933 C.3       11 UNK         0.0225 
     49 N         -76.2082   23.5167  -74.3353 N.am      5 UNK        -0.4615 
     50 C         -75.3060   22.9683  -75.1590 C.2       4 UNK         0.5053 
     51 O         -74.2113   23.4748  -75.3985 O.2       4 UNK        -0.5105 
     52 CA        -75.6939   21.6554  -75.8610 C.3       4 UNK         0.0263 
     53 CB        -75.1777   20.4499  -75.0604 C.3       4 UNK        -0.1981 
     54 N         -77.1342   21.5108  -76.0834 N.am      4 UNK        -0.4224 
     55 C         -77.8834   22.3199  -76.8456 C.2       3 UNK         0.4895 
     56 O         -77.4243   23.2755  -77.4749 O.2       3 UNK        -0.5091 
     57 CA        -79.3997   22.0327  -76.8987 C.3       3 UNK         0.0250 
     58 CB        -79.8509   20.8661  -75.9891 C.3       3 UNK        -0.1996 
     59 N         -80.2301   23.2126  -76.6194 N.am      3 UNK        -0.4254 
     60 C         -80.1253   24.0555  -75.5816 C.2       2 UNK         0.5004 
     61 O         -79.2194   24.0270  -74.7429 O.2       2 UNK        -0.5226 
     62 CA        -81.2428   25.0945  -75.4409 C.3       2 UNK         0.0269 
     63 CB        -82.4552   24.4830  -74.7121 C.3       2 UNK        -0.1926 
     64 N         -80.7308   26.2421  -74.6957 N.am      2 UNK        -0.4687 
     65 C         -81.2843   27.4606  -74.6726 C.2       1 UNK         0.5165 
     66 O         -82.3260   27.7412  -75.2693 O.2       1 UNK        -0.5079 
     67 H67       -78.1955   31.4456  -76.4496 H         1 UNK         0.0900 
     68 H68       -77.3157   30.0958  -75.7402 H         1 UNK         0.0900 
     69 H69       -78.0422   29.9318  -77.3425 H         1 UNK         0.0900 
     70 H70       -78.4848   28.8336  -74.3133 H         1 UNK         0.2959 
     71 H71       -80.0303   28.0095  -73.0553 H         1 UNK         0.1079 
     72 H72       -80.8765   30.5804  -73.1670 H         1 UNK         0.0837 
     73 H73       -82.2764   29.8797  -73.8950 H         1 UNK         0.0837 
     74 H74       -81.0627   29.8303  -69.4775 H         1 UNK         0.0685 
     75 H75       -80.8182   31.0720  -70.6810 H         1 UNK         0.0685 
     76 H76       -79.7375   27.6349  -69.6735 H         1 UNK         0.1434 
     77 H77       -75.9316   27.9386  -71.6361 H         1 UNK         0.1329 
     78 H78       -78.7499   31.1420  -71.9297 H         1 UNK         0.1335 
     79 H79       -75.7033   29.6973  -73.3744 H         1 UNK         0.0680 
     80 H80       -76.8329   31.0189  -73.4429 H         1 UNK         0.0680 
     81 H81       -74.2952   29.3105  -71.0673 H         1 UNK         0.1032 
     82 H82       -73.5426   30.6367  -70.2410 H         1 UNK         0.1032 
     83 H83       -72.2092   31.2113  -72.2667 H         1 UNK         0.0461 
     84 H84       -70.5604   30.8577  -70.7052 H         1 UNK         0.3453 
     85 H85       -69.8788   29.2763  -70.4283 H         1 UNK         0.3453 
     86 H86       -73.3031   28.7431  -73.5320 H         1 UNK         0.2984 
     87 H87       -74.4863   29.6672  -75.8805 H         1 UNK         0.0554 
     88 H88       -73.3404   31.3283  -77.2937 H         1 UNK         0.0847 
     89 H89       -73.3231   29.7642  -78.0914 H         1 UNK         0.0847 
     90 H90       -71.8667   30.3711  -77.3037 H         1 UNK         0.0847 
     91 H91       -73.8236   27.5780  -75.8336 H         1 UNK         0.3141 
     92 H92       -70.7726   25.8705  -76.3933 H         1 UNK         0.0743 
     93 H93       -70.9812   25.9795  -73.9018 H         1 UNK         0.0784 
     94 H94       -72.7226   25.7825  -74.0247 H         1 UNK         0.0784 
     95 H95       -71.6481   24.4793  -74.5291 H         1 UNK         0.0784 
     96 H96       -73.4753   24.9685  -76.2617 H         1 UNK         0.3213 
     97 H97       -74.3268   25.6321  -79.6933 H         1 UNK         0.0855 
     98 H98       -73.8623   23.0815  -78.0634 H         1 UNK         0.0814 
     99 H99       -73.3037   23.4111  -79.6917 H         1 UNK         0.0814 
    100 H100      -75.0236   23.2214  -79.3849 H         1 UNK         0.0814 
    101 H101      -75.9147   24.6535  -77.5428 H         1 UNK         0.3105 
    102 H102      -77.0207   27.8279  -76.3439 H         1 UNK         0.0547 
    103 H103      -78.5227   25.6418  -77.8790 H         1 UNK         0.0837 
    104 H104      -78.4247   27.3250  -78.3666 H         1 UNK         0.0837 
    105 H105      -79.2344   26.9050  -76.8751 H         1 UNK         0.0837 
    106 H106      -77.5903   25.0750  -75.6434 H         1 UNK         0.3020 
    107 H107      -75.0034   24.7831  -73.2505 H         1 UNK         0.1245 
    108 H108      -77.5760   24.0251  -72.2866 H         1 UNK         0.0781 
    109 H109      -77.7793   25.7046  -72.6554 H         1 UNK         0.0781 
    110 H110      -77.0897   26.4056  -68.9680 H         1 UNK         0.0836 
    111 H111      -78.3289   25.6428  -69.9342 H         1 UNK         0.0836 
    112 H112      -77.1167   23.0821  -74.2417 H         1 UNK         0.3022 
    113 H113      -75.2094   21.6460  -76.8383 H         1 UNK         0.0747 
    114 H114      -75.3665   19.5133  -75.5855 H         1 UNK         0.0793 
    115 H115      -74.1000   20.5190  -74.9038 H         1 UNK         0.0793 
    116 H116      -75.6461   20.3860  -74.0774 H         1 UNK         0.0793 
    117 H117      -77.5943   20.7547  -75.5973 H         1 UNK         0.3047 
    118 H118      -79.6086   21.7471  -77.9307 H         1 UNK         0.0822 
    119 H119      -80.9188   20.6774  -76.1010 H         1 UNK         0.0807 
    120 H120      -79.6677   21.0753  -74.9340 H         1 UNK         0.0807 
    121 H121      -79.3428   19.9354  -76.2451 H         1 UNK         0.0807 
    122 H122      -80.9910   23.3570  -77.2685 H         1 UNK         0.2946 
    123 H123      -81.5404   25.4252  -76.4389 H         1 UNK         0.1144 
    124 H124      -83.2792   25.1927  -74.6380 H         1 UNK         0.0793 
    125 H125      -82.1959   24.1655  -73.7012 H         1 UNK         0.0793 
    126 H126      -82.8336   23.6080  -75.2421 H         1 UNK         0.0793 
    127 H127      -79.8595   26.0609  -74.2135 H         1 UNK         0.2896 
@<TRIPOS>BOND
     1    1    2 1    
     2    1   67 1    
     3    1   68 1    
     4    1   69 1    
     5    2    3 2    
     6    2    4 am   BACKBONE|DICT|INTERRES
     7    4    5 1    
     8    4   70 1    
     9    5    6 1    
    10    5   65 1    
    11    5   71 1    
    12    6    7 1    
    13    6   72 1    
    14    6   73 1    
    15    7    8 1    
    16    8    9 1    
    17    8   74 1    
    18    8   75 1    
    19    9   10 ar   
    20    9   14 ar   
    21   10   11 ar   
    22   10   76 1    
    23   11   12 ar   
    24   11   48 1    
    25   12   13 ar   
    26   12   77 1    
    27   13   14 ar   
    28   13   15 1    
    29   14   78 1    
    30   15   16 1    
    31   15   79 1    
    32   15   80 1    
    33   16   17 1    
    34   17   18 1    
    35   17   81 1    
    36   17   82 1    
    37   18   19 1    
    38   18   22 1    
    39   18   83 1    
    40   19   20 am   BACKBONE|DICT|INTERRES
    41   19   21 2    
    42   20   84 1    
    43   20   85 1    
    44   22   23 am   BACKBONE|DICT|INTERRES
    45   22   86 1    
    46   23   24 2    
    47   23   25 1    
    48   25   26 1    
    49   25   27 1    
    50   25   87 1    
    51   26   88 1    
    52   26   89 1    
    53   26   90 1    
    54   27   28 am   BACKBONE|DICT|INTERRES
    55   27   91 1    
    56   28   29 2    
    57   28   30 1    
    58   30   31 1    
    59   30   32 1    
    60   30   92 1    
    61   31   93 1    
    62   31   94 1    
    63   31   95 1    
    64   32   33 am   BACKBONE|DICT|INTERRES
    65   32   96 1    
    66   33   34 2    
    67   33   35 1    
    68   35   36 1    
    69   35   37 1    
    70   35   97 1    
    71   36   98 1    
    72   36   99 1    
    73   36  100 1    
    74   37   38 am   BACKBONE|DICT|INTERRES
    75   37  101 1    
    76   38   39 2    
    77   38   40 1    
    78   40   41 1    
    79   40   42 1    
    80   40  102 1    
    81   41  103 1    
    82   41  104 1    
    83   41  105 1    
    84   42   43 am   BACKBONE|DICT|INTERRES
    85   42  106 1    
    86   43   44 2    
    87   43   45 1    
    88   45   46 1    
    89   45   49 1    
    90   45  107 1    
    91   46   47 1    
    92   46  108 1    
    93   46  109 1    
    94   47   48 1    
    95   48  110 1    
    96   48  111 1    
    97   49   50 am   BACKBONE|DICT|INTERRES
    98   49  112 1    
    99   50   51 2    
   100   50   52 1    
   101   52   53 1    
   102   52   54 1    
   103   52  113 1    
   104   53  114 1    
   105   53  115 1    
   106   53  116 1    
   107   54   55 am   BACKBONE|DICT|INTERRES
   108   54  117 1    
   109   55   56 2    
   110   55   57 1    
   111   57   58 1    
   112   57   59 1    
   113   57  118 1    
   114   58  119 1    
   115   58  120 1    
   116   58  121 1    
   117   59   60 am   BACKBONE|DICT|INTERRES
   118   59  122 1    
   119   60   61 2    
   120   60   62 1    
   121   62   63 1    
   122   62   64 1    
   123   62  123 1    
   124   63  124 1    
   125   63  125 1    
   126   63  126 1    
   127   64   65 am   BACKBONE|DICT|INTERRES
   128   64  127 1    
   129   65   66 2    
@<TRIPOS>SUBSTRUCTURE
     1 UNK         1 GROUP             0       ****    0 ROOT    
