@<TRIPOS>MOLECULE
3R135
127   129    1
SMALL
USER_CHARGES


@<TRIPOS>ATOM
      1 CA        -80.3773   22.6964  -71.5338 C.3       0 UNK        -0.1998 
      2 C         -81.0191   23.7773  -72.3893 C.2       0 UNK         0.4909 
      3 O         -81.7227   23.4545  -73.3471 O.2       0 UNK        -0.5240 
      4 N         -80.7711   25.0523  -72.0544 N.am      1 UNK        -0.4739 
      5 CA        -81.2766   26.2572  -72.7272 C.3       1 UNK         0.0864 
      6 C6        -80.6736   27.5484  -72.1240 C.3       11 UNK        -0.0881 
      7 S7        -80.8643   27.7226  -70.3207 S.3       11 UNK        -0.2682 
      8 C8        -80.3697   29.4662  -70.0981 C.3       11 UNK         0.0289 
      9 C9        -79.0369   29.7824  -70.7686 C.ar      11 UNK        -0.0687 
     10 C10       -79.0109   30.4143  -72.0175 C.ar      11 UNK        -0.0823 
     11 C11       -77.7976   30.6762  -72.6618 C.ar      11 UNK        -0.0830 
     12 C12       -76.6014   30.3288  -72.0270 C.ar      11 UNK        -0.1021 
     13 C13       -76.6134   29.6931  -70.7814 C.ar      11 UNK        -0.0753 
     14 C14       -77.8336   29.4226  -70.1550 C.ar      11 UNK        -0.0933 
     15 C15       -75.3006   29.2958  -70.1279 C.3       11 UNK         0.0166 
     16 S16       -74.5500   27.8916  -71.0079 S.3       11 UNK        -0.2615 
     17 C17       -72.7783   28.1145  -70.6209 C.3       11 UNK        -0.0865 
     18 CA        -72.1108   29.3180  -71.3453 C.3       10 UNK         0.0862 
     19 C         -70.5782   29.3228  -71.0935 C.2       10 UNK         0.5551 
     20 N         -70.1281   29.9642  -70.0237 N.am      10 UNK        -0.7319 
     21 O         -69.8035   28.7133  -71.8289 O.2       10 UNK        -0.5018 
     22 N         -72.4583   29.3593  -72.7711 N.am      10 UNK        -0.4509 
     23 C         -72.1996   30.3592  -73.6187 C.2       10 UNK         0.4899 
     24 O         -71.6339   31.4048  -73.2943 O.2       10 UNK        -0.4839 
     25 CA        -72.6624   30.1464  -75.0745 C.3       9 UNK         0.0222 
     26 CB        -72.4198   31.3801  -75.9637 C.3       9 UNK        -0.1966 
     27 N         -72.0316   28.9773  -75.6957 N.am      9 UNK        -0.4218 
     28 C         -72.3750   27.7051  -75.4615 C.2       9 UNK         0.5020 
     29 O         -73.2403   27.3686  -74.6521 O.2       9 UNK        -0.5274 
     30 CA        -71.6066   26.6249  -76.2229 C.3       8 UNK         0.0270 
     31 CB        -70.5743   25.9388  -75.3089 C.3       8 UNK        -0.1976 
     32 N         -72.5686   25.6509  -76.7305 N.am      8 UNK        -0.4313 
     33 C         -72.3629   24.8466  -77.7803 C.2       8 UNK         0.5041 
     34 O         -71.3013   24.7892  -78.4032 O.2       8 UNK        -0.5577 
     35 CA        -73.5462   23.9818  -78.2369 C.3       7 UNK         0.0284 
     36 CB        -73.7528   22.7776  -77.3022 C.3       7 UNK        -0.1958 
     37 N         -74.7741   24.7743  -78.3180 N.am      7 UNK        -0.4454 
     38 C         -75.1188   25.5204  -79.3779 C.2       7 UNK         0.5089 
     39 O         -74.4624   25.5710  -80.4188 O.2       7 UNK        -0.5125 
     40 CA        -76.4179   26.3429  -79.2817 C.3       6 UNK         0.0408 
     41 CB        -77.5800   25.5739  -79.9279 C.3       6 UNK        -0.1791 
     42 N         -76.7803   26.7020  -77.9095 N.am      6 UNK        -0.4762 
     43 C         -76.1332   27.6106  -77.1632 C.2       6 UNK         0.5007 
     44 O         -75.2039   28.2987  -77.5861 O.2       6 UNK        -0.5032 
     45 CA        -76.5712   27.7335  -75.6870 C.3       5 UNK         0.0783 
     46 C46       -77.5861   28.8872  -75.4682 C.3       11 UNK        -0.0857 
     47 S47       -76.7513   30.4993  -75.2706 S.3       11 UNK        -0.2512 
     48 C48       -77.7912   31.3495  -74.0318 C.3       11 UNK         0.0225 
     49 N         -77.0677   26.4673  -75.1367 N.am      5 UNK        -0.4615 
     50 C         -76.3416   25.3505  -74.9919 C.2       4 UNK         0.5053 
     51 O         -75.2017   25.2088  -75.4311 O.2       4 UNK        -0.5105 
     52 CA        -77.0153   24.1857  -74.2621 C.3       4 UNK         0.0263 
     53 CB        -77.2645   24.5387  -72.7854 C.3       4 UNK        -0.1981 
     54 N         -78.2727   23.8126  -74.9096 N.am      4 UNK        -0.4224 
     55 C         -78.3750   22.9312  -75.9146 C.2       3 UNK         0.4895 
     56 O         -77.4104   22.3560  -76.4186 O.2       3 UNK        -0.5091 
     57 CA        -79.7865   22.6117  -76.4394 C.3       3 UNK         0.0250 
     58 CB        -80.3158   21.3212  -75.7930 C.3       3 UNK        -0.1996 
     59 N         -80.7431   23.6951  -76.2026 N.am      3 UNK        -0.4254 
     60 C         -80.8568   24.7759  -76.9884 C.2       2 UNK         0.5004 
     61 O         -80.2100   24.9387  -78.0221 O.2       2 UNK        -0.5226 
     62 CA        -81.8292   25.8823  -76.5352 C.3       2 UNK         0.0269 
     63 CB        -83.2129   25.6755  -77.1714 C.3       2 UNK        -0.1926 
     64 N         -81.9754   25.9962  -75.0790 N.am      2 UNK        -0.4687 
     65 C         -80.9626   26.2318  -74.2348 C.2       1 UNK         0.5165 
     66 O         -79.7953   26.3812  -74.5998 O.2       1 UNK        -0.5079 
     67 H67       -79.7206   22.0768  -72.1439 H         1 UNK         0.0900 
     68 H68       -79.7887   23.1165  -70.7184 H         1 UNK         0.0900 
     69 H69       -81.1458   22.0558  -71.1023 H         1 UNK         0.0900 
     70 H70       -80.1946   25.2415  -71.2468 H         1 UNK         0.2959 
     71 H71       -82.3595   26.2822  -72.5907 H         1 UNK         0.1079 
     72 H72       -81.1225   28.4229  -72.5993 H         1 UNK         0.0837 
     73 H73       -79.6027   27.5979  -72.3347 H         1 UNK         0.0837 
     74 H74       -81.1564   30.1114  -70.4924 H         1 UNK         0.0685 
     75 H75       -80.3050   29.6834  -69.0310 H         1 UNK         0.0685 
     76 H76       -79.9414   30.6878  -72.4959 H         1 UNK         0.1434 
     77 H77       -75.6564   30.5312  -72.5130 H         1 UNK         0.1329 
     78 H78       -77.8504   28.9223  -69.1964 H         1 UNK         0.1335 
     79 H79       -74.6336   30.1572  -70.1371 H         1 UNK         0.0680 
     80 H80       -75.4458   29.0274  -69.0803 H         1 UNK         0.0680 
     81 H81       -72.6649   28.2096  -69.5393 H         1 UNK         0.1032 
     82 H82       -72.2732   27.1858  -70.8945 H         1 UNK         0.1032 
     83 H83       -72.5086   30.2368  -70.9122 H         1 UNK         0.0461 
     84 H84       -70.7549   30.4593  -69.4084 H         1 UNK         0.3453 
     85 H85       -69.1380   29.9642  -69.8336 H         1 UNK         0.3453 
     86 H86       -72.8979   28.5250  -73.1508 H         1 UNK         0.2984 
     87 H87       -73.7407   29.9768  -75.0428 H         1 UNK         0.0554 
     88 H88       -72.9133   32.2610  -75.5507 H         1 UNK         0.0847 
     89 H89       -72.8206   31.2301  -76.9664 H         1 UNK         0.0847 
     90 H90       -71.3581   31.6128  -76.0551 H         1 UNK         0.0847 
     91 H91       -71.2774   29.1656  -76.3405 H         1 UNK         0.3141 
     92 H92       -71.0904   27.0879  -77.0667 H         1 UNK         0.0743 
     93 H93       -71.0556   25.4369  -74.4684 H         1 UNK         0.0784 
     94 H94       -69.9906   25.1962  -75.8529 H         1 UNK         0.0784 
     95 H95       -69.8726   26.6655  -74.8970 H         1 UNK         0.0784 
     96 H96       -73.4686   25.6405  -76.2504 H         1 UNK         0.3213 
     97 H97       -73.3116   23.5896  -79.2292 H         1 UNK         0.0855 
     98 H98       -73.9504   23.0810  -76.2743 H         1 UNK         0.0814 
     99 H99       -72.8652   22.1438  -77.2868 H         1 UNK         0.0814 
    100 H100      -74.5879   22.1591  -77.6319 H         1 UNK         0.0814 
    101 H101      -75.3242   24.8402  -77.4696 H         1 UNK         0.3105 
    102 H102      -76.2672   27.2656  -79.8461 H         1 UNK         0.0547 
    103 H103      -77.3536   25.3219  -80.9648 H         1 UNK         0.0837 
    104 H104      -77.7875   24.6400  -79.4036 H         1 UNK         0.0837 
    105 H105      -78.4954   26.1659  -79.9324 H         1 UNK         0.0837 
    106 H106      -77.5380   26.1847  -77.4854 H         1 UNK         0.3020 
    107 H107      -75.6711   27.9643  -75.1144 H         1 UNK         0.1245 
    108 H108      -78.1672   28.7011  -74.5637 H         1 UNK         0.0781 
    109 H109      -78.3156   28.9464  -76.2782 H         1 UNK         0.0781 
    110 H110      -78.8040   31.4314  -74.4295 H         1 UNK         0.0836 
    111 H111      -77.4261   32.3704  -73.9135 H         1 UNK         0.0836 
    112 H112      -78.0349   26.4682  -74.8162 H         1 UNK         0.3022 
    113 H113      -76.3293   23.3358  -74.2865 H         1 UNK         0.0747 
    114 H114      -77.6505   23.6818  -72.2348 H         1 UNK         0.0793 
    115 H115      -76.3370   24.8426  -72.2976 H         1 UNK         0.0793 
    116 H116      -77.9715   25.3609  -72.6721 H         1 UNK         0.0793 
    117 H117      -79.1007   24.3163  -74.6214 H         1 UNK         0.3047 
    118 H118      -79.7050   22.4396  -77.5151 H         1 UNK         0.0822 
    119 H119      -81.2927   21.0491  -76.1931 H         1 UNK         0.0807 
    120 H120      -80.4124   21.4194  -74.7112 H         1 UNK         0.0807 
    121 H121      -79.6430   20.4841  -75.9852 H         1 UNK         0.0807 
    122 H122      -81.2946   23.6446  -75.3507 H         1 UNK         0.2946 
    123 H123      -81.4222   26.8290  -76.8980 H         1 UNK         0.1144 
    124 H124      -83.8825   26.5057  -76.9458 H         1 UNK         0.0793 
    125 H125      -83.6848   24.7566  -76.8210 H         1 UNK         0.0793 
    126 H126      -83.1370   25.6094  -78.2578 H         1 UNK         0.0793 
    127 H127      -82.8990   25.8356  -74.7025 H         1 UNK         0.2896 
@<TRIPOS>BOND
     1    1    2 1    
     2    1   67 1    
     3    1   68 1    
     4    1   69 1    
     5    2    3 2    
     6    2    4 am   BACKBONE|DICT|INTERRES
     7    4    5 1    
     8    4   70 1    
     9    5    6 1    
    10    5   65 1    
    11    5   71 1    
    12    6    7 1    
    13    6   72 1    
    14    6   73 1    
    15    7    8 1    
    16    8    9 1    
    17    8   74 1    
    18    8   75 1    
    19    9   10 ar   
    20    9   14 ar   
    21   10   11 ar   
    22   10   76 1    
    23   11   12 ar   
    24   11   48 1    
    25   12   13 ar   
    26   12   77 1    
    27   13   14 ar   
    28   13   15 1    
    29   14   78 1    
    30   15   16 1    
    31   15   79 1    
    32   15   80 1    
    33   16   17 1    
    34   17   18 1    
    35   17   81 1    
    36   17   82 1    
    37   18   19 1    
    38   18   22 1    
    39   18   83 1    
    40   19   20 am   BACKBONE|DICT|INTERRES
    41   19   21 2    
    42   20   84 1    
    43   20   85 1    
    44   22   23 am   BACKBONE|DICT|INTERRES
    45   22   86 1    
    46   23   24 2    
    47   23   25 1    
    48   25   26 1    
    49   25   27 1    
    50   25   87 1    
    51   26   88 1    
    52   26   89 1    
    53   26   90 1    
    54   27   28 am   BACKBONE|DICT|INTERRES
    55   27   91 1    
    56   28   29 2    
    57   28   30 1    
    58   30   31 1    
    59   30   32 1    
    60   30   92 1    
    61   31   93 1    
    62   31   94 1    
    63   31   95 1    
    64   32   33 am   BACKBONE|DICT|INTERRES
    65   32   96 1    
    66   33   34 2    
    67   33   35 1    
    68   35   36 1    
    69   35   37 1    
    70   35   97 1    
    71   36   98 1    
    72   36   99 1    
    73   36  100 1    
    74   37   38 am   BACKBONE|DICT|INTERRES
    75   37  101 1    
    76   38   39 2    
    77   38   40 1    
    78   40   41 1    
    79   40   42 1    
    80   40  102 1    
    81   41  103 1    
    82   41  104 1    
    83   41  105 1    
    84   42   43 am   BACKBONE|DICT|INTERRES
    85   42  106 1    
    86   43   44 2    
    87   43   45 1    
    88   45   46 1    
    89   45   49 1    
    90   45  107 1    
    91   46   47 1    
    92   46  108 1    
    93   46  109 1    
    94   47   48 1    
    95   48  110 1    
    96   48  111 1    
    97   49   50 am   BACKBONE|DICT|INTERRES
    98   49  112 1    
    99   50   51 2    
   100   50   52 1    
   101   52   53 1    
   102   52   54 1    
   103   52  113 1    
   104   53  114 1    
   105   53  115 1    
   106   53  116 1    
   107   54   55 am   BACKBONE|DICT|INTERRES
   108   54  117 1    
   109   55   56 2    
   110   55   57 1    
   111   57   58 1    
   112   57   59 1    
   113   57  118 1    
   114   58  119 1    
   115   58  120 1    
   116   58  121 1    
   117   59   60 am   BACKBONE|DICT|INTERRES
   118   59  122 1    
   119   60   61 2    
   120   60   62 1    
   121   62   63 1    
   122   62   64 1    
   123   62  123 1    
   124   63  124 1    
   125   63  125 1    
   126   63  126 1    
   127   64   65 am   BACKBONE|DICT|INTERRES
   128   64  127 1    
   129   65   66 2    
@<TRIPOS>SUBSTRUCTURE
     1 UNK         1 GROUP             0       ****    0 ROOT    
