@<TRIPOS>MOLECULE
3R135
127   129    1
SMALL
USER_CHARGES


@<TRIPOS>ATOM
      1 CA        -85.1288   26.3437  -72.5585 C.3       0 UNK        -0.1998 
      2 C         -83.6888   26.3916  -73.0465 C.2       0 UNK         0.4909 
      3 O         -83.1024   25.3429  -73.3112 O.2       0 UNK        -0.5240 
      4 N         -83.1268   27.6033  -73.1751 N.am      1 UNK        -0.4739 
      5 CA        -81.7461   27.8944  -73.6045 C.3       1 UNK         0.0864 
      6 C6        -80.6589   27.3079  -72.6597 C.3       11 UNK        -0.0881 
      7 S7        -80.8801   27.7735  -70.9045 S.3       11 UNK        -0.2682 
      8 C8        -79.6503   29.1049  -70.6755 C.3       11 UNK         0.0289 
      9 C9        -78.2326   28.6986  -71.0655 C.ar      11 UNK        -0.0687 
     10 C10       -77.6789   27.4966  -70.6099 C.ar      11 UNK        -0.0823 
     11 C11       -76.4082   27.0936  -71.0328 C.ar      11 UNK        -0.0830 
     12 C12       -75.6728   27.9304  -71.8755 C.ar      11 UNK        -0.1021 
     13 C13       -76.1940   29.1518  -72.3062 C.ar      11 UNK        -0.0753 
     14 C14       -77.4789   29.5269  -71.9039 C.ar      11 UNK        -0.0933 
     15 C15       -75.3673   30.0623  -73.2026 C.3       11 UNK         0.0166 
     16 S16       -74.0041   30.8239  -72.2661 S.3       11 UNK        -0.2615 
     17 C17       -73.5699   32.2632  -73.3068 C.3       11 UNK        -0.0865 
     18 CA        -72.1723   32.1783  -73.9749 C.3       10 UNK         0.0862 
     19 C         -71.0007   32.2341  -72.9473 C.2       10 UNK         0.5551 
     20 N         -70.0809   31.2757  -72.9201 N.am      10 UNK        -0.7319 
     21 O         -70.9160   33.1811  -72.1689 O.2       10 UNK        -0.5018 
     22 N         -72.1000   31.0713  -74.9387 N.am      10 UNK        -0.4509 
     23 C         -71.2850   31.0405  -76.0005 C.2       10 UNK         0.4899 
     24 O         -70.5693   31.9847  -76.3393 O.2       10 UNK        -0.4839 
     25 CA        -71.2699   29.7330  -76.8168 C.3       9 UNK         0.0222 
     26 CB        -70.0078   29.5934  -77.6941 C.3       9 UNK        -0.1966 
     27 N         -71.4633   28.5226  -76.0072 N.am      9 UNK        -0.4218 
     28 C         -70.7071   28.0984  -74.9790 C.2       9 UNK         0.5020 
     29 O         -69.7693   28.7453  -74.5103 O.2       9 UNK        -0.5274 
     30 CA        -71.0577   26.7382  -74.3389 C.3       8 UNK         0.0270 
     31 CB        -71.7455   26.9626  -72.9836 C.3       8 UNK        -0.1976 
     32 N         -71.9149   25.8926  -75.1756 N.am      8 UNK        -0.4313 
     33 C         -71.5509   25.3561  -76.3519 C.2       8 UNK         0.5041 
     34 O         -70.3972   25.3836  -76.7820 O.2       8 UNK        -0.5577 
     35 CA        -72.6557   24.7241  -77.2243 C.3       7 UNK         0.0284 
     36 CB        -72.5564   23.1912  -77.1870 C.3       7 UNK        -0.1958 
     37 N         -74.0174   25.1352  -76.8598 N.am      7 UNK        -0.4454 
     38 C         -74.4764   26.3980  -76.8749 C.2       7 UNK         0.5089 
     39 O         -73.8162   27.3508  -77.2902 O.2       7 UNK        -0.5125 
     40 CA        -75.8644   26.6721  -76.2643 C.3       6 UNK         0.0408 
     41 CB        -76.8846   26.9869  -77.3684 C.3       6 UNK        -0.1791 
     42 N         -76.3855   25.5967  -75.4149 N.am      6 UNK        -0.4762 
     43 C         -75.8085   25.1322  -74.2930 C.2       6 UNK         0.5007 
     44 O         -74.7312   25.5475  -73.8625 O.2       6 UNK        -0.5032 
     45 CA        -76.5213   23.9606  -73.5776 C.3       5 UNK         0.0783 
     46 C46       -77.5264   24.4916  -72.5168 C.3       11 UNK        -0.0857 
     47 S47       -76.9304   24.3316  -70.7996 S.3       11 UNK        -0.2512 
     48 C48       -75.8122   25.7614  -70.5902 C.3       11 UNK         0.0225 
     49 N         -77.1779   23.0419  -74.5181 N.am      5 UNK        -0.4615 
     50 C         -76.5959   22.4178  -75.5524 C.2       4 UNK         0.5053 
     51 O         -75.3876   22.4618  -75.7796 O.2       4 UNK        -0.5105 
     52 CA        -77.5128   21.6585  -76.5325 C.3       4 UNK         0.0263 
     53 CB        -77.4164   20.1444  -76.2851 C.3       4 UNK        -0.1981 
     54 N         -78.9284   22.0594  -76.5189 N.am      4 UNK        -0.4224 
     55 C         -79.4018   23.2995  -76.7135 C.2       3 UNK         0.4895 
     56 O         -78.6822   24.2875  -76.8831 O.2       3 UNK        -0.5091 
     57 CA        -80.9279   23.4635  -76.6736 C.3       3 UNK         0.0250 
     58 CB        -81.5244   22.9587  -75.3434 C.3       3 UNK        -0.1996 
     59 N         -81.2528   24.8758  -76.8424 N.am      3 UNK        -0.4254 
     60 C         -82.4002   25.3836  -77.2991 C.2       2 UNK         0.5004 
     61 O         -83.3488   24.6967  -77.6841 O.2       2 UNK        -0.5226 
     62 CA        -82.5104   26.9218  -77.2757 C.3       2 UNK         0.0269 
     63 CB        -83.7569   27.4392  -78.0180 C.3       2 UNK        -0.1926 
     64 N         -82.5432   27.4145  -75.8956 N.am      2 UNK        -0.4687 
     65 C         -81.4803   27.5197  -75.0837 C.2       1 UNK         0.5165 
     66 O         -80.3267   27.3217  -75.4708 O.2       1 UNK        -0.5079 
     67 H67       -85.7605   25.8575  -73.3014 H         1 UNK         0.0900 
     68 H68       -85.5303   27.3393  -72.3702 H         1 UNK         0.0900 
     69 H69       -85.1905   25.7730  -71.6324 H         1 UNK         0.0900 
     70 H70       -83.6748   28.4185  -72.9361 H         1 UNK         0.2959 
     71 H71       -81.6474   28.9804  -73.5692 H         1 UNK         0.1079 
     72 H72       -80.6561   26.2181  -72.7147 H         1 UNK         0.0837 
     73 H73       -79.6661   27.6142  -72.9911 H         1 UNK         0.0837 
     74 H74       -79.6530   29.4102  -69.6285 H         1 UNK         0.0685 
     75 H75       -79.9752   29.9727  -71.2516 H         1 UNK         0.0685 
     76 H76       -78.2541   26.8546  -69.9568 H         1 UNK         0.1434 
     77 H77       -74.6855   27.6339  -72.1956 H         1 UNK         0.1329 
     78 H78       -77.8938   30.4649  -72.2469 H         1 UNK         0.1335 
     79 H79       -76.0013   30.8395  -73.6318 H         1 UNK         0.0680 
     80 H80       -74.9615   29.4916  -74.0391 H         1 UNK         0.0680 
     81 H81       -74.3290   32.4045  -74.0771 H         1 UNK         0.1032 
     82 H82       -73.6315   33.1575  -72.6838 H         1 UNK         0.1032 
     83 H83       -72.0689   33.0999  -74.5514 H         1 UNK         0.0461 
     84 H84       -69.3299   31.3377  -72.2518 H         1 UNK         0.3453 
     85 H85       -70.1155   30.4920  -73.5628 H         1 UNK         0.3453 
     86 H86       -72.6321   30.2461  -74.7081 H         1 UNK         0.2984 
     87 H87       -72.1302   29.7867  -77.4854 H         1 UNK         0.0554 
     88 H88       -70.0301   28.6721  -78.2764 H         1 UNK         0.0847 
     89 H89       -69.0977   29.5877  -77.0932 H         1 UNK         0.0847 
     90 H90       -69.9263   30.4197  -78.4013 H         1 UNK         0.0847 
     91 H91       -72.2356   27.9353  -76.3114 H         1 UNK         0.3141 
     92 H92       -70.1214   26.2030  -74.1685 H         1 UNK         0.0743 
     93 H93       -71.0916   27.5030  -72.2976 H         1 UNK         0.0784 
     94 H94       -72.6541   27.5528  -73.0967 H         1 UNK         0.0784 
     95 H95       -72.0116   26.0195  -72.5055 H         1 UNK         0.0784 
     96 H96       -72.8779   25.7850  -74.8718 H         1 UNK         0.3213 
     97 H97       -72.4809   25.0536  -78.2506 H         1 UNK         0.0855 
     98 H98       -72.7074   22.8032  -76.1788 H         1 UNK         0.0814 
     99 H99       -71.5739   22.8550  -77.5211 H         1 UNK         0.0814 
    100 H100      -73.2963   22.7272  -77.8395 H         1 UNK         0.0814 
    101 H101      -74.6178   24.4111  -76.4818 H         1 UNK         0.3105 
    102 H102      -75.7656   27.5574  -75.6331 H         1 UNK         0.0547 
    103 H103      -77.0257   26.1386  -78.0392 H         1 UNK         0.0837 
    104 H104      -77.8569   27.2472  -76.9489 H         1 UNK         0.0837 
    105 H105      -76.5571   27.8320  -77.9753 H         1 UNK         0.0837 
    106 H106      -77.2423   25.1557  -75.7376 H         1 UNK         0.3020 
    107 H107      -75.7411   23.3780  -73.0826 H         1 UNK         0.1245 
    108 H108      -78.4538   23.9174  -72.5512 H         1 UNK         0.0781 
    109 H109      -77.8435   25.5179  -72.7128 H         1 UNK         0.0781 
    110 H110      -75.5337   25.8359  -69.5383 H         1 UNK         0.0836 
    111 H111      -74.8890   25.5541  -71.1335 H         1 UNK         0.0836 
    112 H112      -78.1762   22.9406  -74.4178 H         1 UNK         0.3022 
    113 H113      -77.1339   21.8639  -77.5358 H         1 UNK         0.0747 
    114 H114      -76.3791   19.8075  -76.3186 H         1 UNK         0.0793 
    115 H115      -77.9603   19.5812  -77.0437 H         1 UNK         0.0793 
    116 H116      -77.8167   19.8691  -75.3084 H         1 UNK         0.0793 
    117 H117      -79.5947   21.3130  -76.3810 H         1 UNK         0.3047 
    118 H118      -81.3476   22.8959  -77.5066 H         1 UNK         0.0822 
    119 H119      -81.3522   21.8919  -75.1994 H         1 UNK         0.0807 
    120 H120      -82.6036   23.1110  -75.3107 H         1 UNK         0.0807 
    121 H121      -81.0960   23.4825  -74.4875 H         1 UNK         0.0807 
    122 H122      -80.5146   25.5152  -76.5610 H         1 UNK         0.2946 
    123 H123      -81.6283   27.3232  -77.7805 H         1 UNK         0.1144 
    124 H124      -84.6802   27.0889  -77.5546 H         1 UNK         0.0793 
    125 H125      -83.7623   27.0991  -79.0545 H         1 UNK         0.0793 
    126 H126      -83.7834   28.5288  -78.0361 H         1 UNK         0.0793 
    127 H127      -83.4564   27.5607  -75.4905 H         1 UNK         0.2896 
@<TRIPOS>BOND
     1    1    2 1    
     2    1   67 1    
     3    1   68 1    
     4    1   69 1    
     5    2    3 2    
     6    2    4 am   BACKBONE|DICT|INTERRES
     7    4    5 1    
     8    4   70 1    
     9    5    6 1    
    10    5   65 1    
    11    5   71 1    
    12    6    7 1    
    13    6   72 1    
    14    6   73 1    
    15    7    8 1    
    16    8    9 1    
    17    8   74 1    
    18    8   75 1    
    19    9   10 ar   
    20    9   14 ar   
    21   10   11 ar   
    22   10   76 1    
    23   11   12 ar   
    24   11   48 1    
    25   12   13 ar   
    26   12   77 1    
    27   13   14 ar   
    28   13   15 1    
    29   14   78 1    
    30   15   16 1    
    31   15   79 1    
    32   15   80 1    
    33   16   17 1    
    34   17   18 1    
    35   17   81 1    
    36   17   82 1    
    37   18   19 1    
    38   18   22 1    
    39   18   83 1    
    40   19   20 am   BACKBONE|DICT|INTERRES
    41   19   21 2    
    42   20   84 1    
    43   20   85 1    
    44   22   23 am   BACKBONE|DICT|INTERRES
    45   22   86 1    
    46   23   24 2    
    47   23   25 1    
    48   25   26 1    
    49   25   27 1    
    50   25   87 1    
    51   26   88 1    
    52   26   89 1    
    53   26   90 1    
    54   27   28 am   BACKBONE|DICT|INTERRES
    55   27   91 1    
    56   28   29 2    
    57   28   30 1    
    58   30   31 1    
    59   30   32 1    
    60   30   92 1    
    61   31   93 1    
    62   31   94 1    
    63   31   95 1    
    64   32   33 am   BACKBONE|DICT|INTERRES
    65   32   96 1    
    66   33   34 2    
    67   33   35 1    
    68   35   36 1    
    69   35   37 1    
    70   35   97 1    
    71   36   98 1    
    72   36   99 1    
    73   36  100 1    
    74   37   38 am   BACKBONE|DICT|INTERRES
    75   37  101 1    
    76   38   39 2    
    77   38   40 1    
    78   40   41 1    
    79   40   42 1    
    80   40  102 1    
    81   41  103 1    
    82   41  104 1    
    83   41  105 1    
    84   42   43 am   BACKBONE|DICT|INTERRES
    85   42  106 1    
    86   43   44 2    
    87   43   45 1    
    88   45   46 1    
    89   45   49 1    
    90   45  107 1    
    91   46   47 1    
    92   46  108 1    
    93   46  109 1    
    94   47   48 1    
    95   48  110 1    
    96   48  111 1    
    97   49   50 am   BACKBONE|DICT|INTERRES
    98   49  112 1    
    99   50   51 2    
   100   50   52 1    
   101   52   53 1    
   102   52   54 1    
   103   52  113 1    
   104   53  114 1    
   105   53  115 1    
   106   53  116 1    
   107   54   55 am   BACKBONE|DICT|INTERRES
   108   54  117 1    
   109   55   56 2    
   110   55   57 1    
   111   57   58 1    
   112   57   59 1    
   113   57  118 1    
   114   58  119 1    
   115   58  120 1    
   116   58  121 1    
   117   59   60 am   BACKBONE|DICT|INTERRES
   118   59  122 1    
   119   60   61 2    
   120   60   62 1    
   121   62   63 1    
   122   62   64 1    
   123   62  123 1    
   124   63  124 1    
   125   63  125 1    
   126   63  126 1    
   127   64   65 am   BACKBONE|DICT|INTERRES
   128   64  127 1    
   129   65   66 2    
@<TRIPOS>SUBSTRUCTURE
     1 UNK         1 GROUP             0       ****    0 ROOT    
