@<TRIPOS>MOLECULE
3R135
127   129    1
SMALL
USER_CHARGES


@<TRIPOS>ATOM
      1 CA        -84.8480   23.8911  -70.1852 C.3       0 UNK        -0.1998 
      2 C         -84.5451   25.2802  -70.7264 C.2       0 UNK         0.4909 
      3 O         -85.3698   26.1840  -70.5879 O.2       0 UNK        -0.5240 
      4 N         -83.3665   25.4578  -71.3392 N.am      1 UNK        -0.4739 
      5 CA        -82.9204   26.7192  -71.9454 C.3       1 UNK         0.0864 
      6 C6        -81.3937   26.6904  -72.2178 C.3       11 UNK        -0.0881 
      7 S7        -80.6868   28.3478  -72.5244 S.3       11 UNK        -0.2682 
      8 C8        -79.4778   28.5129  -71.1753 C.3       11 UNK         0.0289 
      9 C9        -78.1221   27.9408  -71.5636 C.ar      11 UNK        -0.0687 
     10 C10       -77.8163   26.5987  -71.3165 C.ar      11 UNK        -0.0823 
     11 C11       -76.5556   26.0865  -71.6397 C.ar      11 UNK        -0.0830 
     12 C12       -75.5995   26.9293  -72.2146 C.ar      11 UNK        -0.1021 
     13 C13       -75.8981   28.2673  -72.4832 C.ar      11 UNK        -0.0753 
     14 C14       -77.1606   28.7677  -72.1526 C.ar      11 UNK        -0.0933 
     15 C15       -74.8640   29.1714  -73.1368 C.3       11 UNK         0.0166 
     16 S16       -73.6444   29.7686  -71.9247 S.3       11 UNK        -0.2615 
     17 C17       -72.8053   31.2027  -72.7065 C.3       11 UNK        -0.0865 
     18 CA        -72.9148   31.3777  -74.2478 C.3       10 UNK         0.0862 
     19 C         -72.2875   32.7319  -74.6946 C.2       10 UNK         0.5551 
     20 N         -71.2304   32.7469  -75.4980 N.am      10 UNK        -0.7319 
     21 O         -72.7766   33.7903  -74.3076 O.2       10 UNK        -0.5018 
     22 N         -72.3832   30.2079  -74.9619 N.am      10 UNK        -0.4509 
     23 C         -72.7169   29.8388  -76.2032 C.2       10 UNK         0.4899 
     24 O         -73.5482   30.4335  -76.8888 O.2       10 UNK        -0.4839 
     25 CA        -72.0387   28.5832  -76.7845 C.3       9 UNK         0.0222 
     26 CB        -70.8733   28.9602  -77.7188 C.3       9 UNK        -0.1966 
     27 N         -71.6284   27.5780  -75.7931 N.am      9 UNK        -0.4218 
     28 C         -70.6726   27.6441  -74.8530 C.2       9 UNK         0.5020 
     29 O         -69.9709   28.6360  -74.6555 O.2       9 UNK        -0.5274 
     30 CA        -70.4962   26.4130  -73.9528 C.3       8 UNK         0.0270 
     31 CB        -71.4708   26.4852  -72.7674 C.3       8 UNK        -0.1976 
     32 N         -70.7272   25.1702  -74.6916 N.am      8 UNK        -0.4313 
     33 C         -69.7614   24.3912  -75.1974 C.2       8 UNK         0.5041 
     34 O         -68.5574   24.6038  -75.0469 O.2       8 UNK        -0.5577 
     35 CA        -70.2065   23.1590  -76.0085 C.3       7 UNK         0.0284 
     36 CB        -70.2907   21.9213  -75.1004 C.3       7 UNK        -0.1958 
     37 N         -71.4898   23.3460  -76.6907 N.am      7 UNK        -0.4454 
     38 C         -71.6907   24.1817  -77.7191 C.2       7 UNK         0.5089 
     39 O         -70.7951   24.8306  -78.2593 O.2       7 UNK        -0.5125 
     40 CA        -73.1394   24.3437  -78.2172 C.3       6 UNK         0.0408 
     41 CB        -73.3815   23.4565  -79.4485 C.3       6 UNK        -0.1791 
     42 N         -74.1830   24.0771  -77.2161 N.am      6 UNK        -0.4762 
     43 C         -74.3262   24.7291  -76.0533 C.2       6 UNK         0.5007 
     44 O         -73.5097   25.5477  -75.6247 O.2       6 UNK        -0.5032 
     45 CA        -75.5782   24.4198  -75.2130 C.3       5 UNK         0.0783 
     46 C46       -75.1720   23.8220  -73.8418 C.3       11 UNK        -0.0857 
     47 S47       -76.5933   23.5260  -72.7340 S.3       11 UNK        -0.2512 
     48 C48       -76.2198   24.6326  -71.3340 C.3       11 UNK         0.0225 
     49 N         -76.3911   25.6311  -75.0843 N.am      5 UNK        -0.4615 
     50 C         -77.0686   26.2037  -76.0854 C.2       4 UNK         0.5053 
     51 O         -77.0907   25.7702  -77.2400 O.2       4 UNK        -0.5105 
     52 CA        -77.8341   27.4928  -75.7439 C.3       4 UNK         0.0263 
     53 CB        -77.0001   28.7256  -76.1306 C.3       4 UNK        -0.1981 
     54 N         -79.1327   27.5614  -76.4194 N.am      4 UNK        -0.4224 
     55 C         -80.1437   26.7100  -76.2068 C.2       3 UNK         0.4895 
     56 O         -80.1063   25.7772  -75.3992 O.2       3 UNK        -0.5091 
     57 CA        -81.4128   26.9263  -77.0386 C.3       3 UNK         0.0250 
     58 CB        -81.3261   26.1933  -78.3897 C.3       3 UNK        -0.1996 
     59 N         -82.5305   26.4167  -76.2549 N.am      3 UNK        -0.4254 
     60 C         -83.8185   26.7539  -76.3749 C.2       2 UNK         0.5004 
     61 O         -84.2612   27.4850  -77.2615 O.2       2 UNK        -0.5226 
     62 CA        -84.7699   26.1970  -75.2989 C.3       2 UNK         0.0269 
     63 CB        -85.3564   24.8459  -75.7392 C.3       2 UNK        -0.1926 
     64 N         -84.1145   26.0422  -73.9939 N.am      2 UNK        -0.4687 
     65 C         -83.7219   27.0679  -73.2211 C.2       1 UNK         0.5165 
     66 O         -83.9744   28.2455  -73.4811 O.2       1 UNK        -0.5079 
     67 H67       -84.0309   23.1938  -70.3690 H         1 UNK         0.0900 
     68 H68       -85.7461   23.4929  -70.6566 H         1 UNK         0.0900 
     69 H69       -85.0190   23.9367  -69.1100 H         1 UNK         0.0900 
     70 H70       -82.7266   24.6793  -71.4136 H         1 UNK         0.2959 
     71 H71       -83.1186   27.5115  -71.2194 H         1 UNK         0.1079 
     72 H72       -80.8821   26.2476  -71.3630 H         1 UNK         0.0837 
     73 H73       -81.1584   26.0414  -73.0613 H         1 UNK         0.0837 
     74 H74       -79.8521   28.0393  -70.2665 H         1 UNK         0.0685 
     75 H75       -79.3723   29.5721  -70.9358 H         1 UNK         0.0685 
     76 H76       -78.5548   25.9543  -70.8603 H         1 UNK         0.1434 
     77 H77       -74.6180   26.5485  -72.4498 H         1 UNK         0.1329 
     78 H78       -77.3958   29.8048  -72.3498 H         1 UNK         0.1335 
     79 H79       -75.3698   30.0157  -73.6048 H         1 UNK         0.0680 
     80 H80       -74.3521   28.6228  -73.9279 H         1 UNK         0.0680 
     81 H81       -73.2019   32.0905  -72.2097 H         1 UNK         0.1032 
     82 H82       -71.7534   31.1585  -72.4181 H         1 UNK         0.1032 
     83 H83       -73.9708   31.4714  -74.5014 H         1 UNK         0.0461 
     84 H84       -70.8365   33.6298  -75.7827 H         1 UNK         0.3453 
     85 H85       -70.8211   31.8831  -75.8154 H         1 UNK         0.3453 
     86 H86       -71.6309   29.7008  -74.5088 H         1 UNK         0.2984 
     87 H87       -72.7953   28.0854  -77.3934 H         1 UNK         0.0554 
     88 H88       -70.4457   28.0759  -78.1918 H         1 UNK         0.0847 
     89 H89       -70.0732   29.4772  -77.1886 H         1 UNK         0.0847 
     90 H90       -71.2127   29.6223  -78.5165 H         1 UNK         0.0847 
     91 H91       -72.2246   26.7515  -75.7830 H         1 UNK         0.3141 
     92 H92       -69.4790   26.4320  -73.5555 H         1 UNK         0.0743 
     93 H93       -71.3180   27.3971  -72.1882 H         1 UNK         0.0784 
     94 H94       -72.5056   26.4840  -73.1058 H         1 UNK         0.0784 
     95 H95       -71.3366   25.6422  -72.0895 H         1 UNK         0.0784 
     96 H96       -71.6914   24.9468  -74.9093 H         1 UNK         0.3213 
     97 H97       -69.4439   22.9744  -76.7686 H         1 UNK         0.0855 
     98 H98       -71.0498   22.0375  -74.3257 H         1 UNK         0.0814 
     99 H99       -69.3388   21.7417  -74.5984 H         1 UNK         0.0814 
    100 H100      -70.5268   21.0237  -75.6722 H         1 UNK         0.0814 
    101 H101      -72.2839   22.8377  -76.3299 H         1 UNK         0.3105 
    102 H102      -73.2524   25.3855  -78.5251 H         1 UNK         0.0547 
    103 H103      -73.3221   22.3960  -79.2006 H         1 UNK         0.0837 
    104 H104      -74.3604   23.6456  -79.8894 H         1 UNK         0.0837 
    105 H105      -72.6386   23.6514  -80.2234 H         1 UNK         0.0837 
    106 H106      -74.9023   23.4237  -77.4932 H         1 UNK         0.3020 
    107 H107      -76.1816   23.6755  -75.7377 H         1 UNK         0.1245 
    108 H108      -74.4422   24.4555  -73.3366 H         1 UNK         0.0781 
    109 H109      -74.6709   22.8635  -73.9900 H         1 UNK         0.0781 
    110 H110      -75.1711   24.5337  -71.0493 H         1 UNK         0.0836 
    111 H111      -76.7935   24.2988  -70.4680 H         1 UNK         0.0836 
    112 H112      -76.4262   26.0427  -74.1617 H         1 UNK         0.3022 
    113 H113      -78.0175   27.5148  -74.6674 H         1 UNK         0.0747 
    114 H114      -75.9967   28.6709  -75.7093 H         1 UNK         0.0793 
    115 H115      -77.4567   29.6451  -75.7640 H         1 UNK         0.0793 
    116 H116      -76.8852   28.8118  -77.2118 H         1 UNK         0.0793 
    117 H117      -79.2355   28.2749  -77.1260 H         1 UNK         0.3047 
    118 H118      -81.5518   27.9971  -77.2034 H         1 UNK         0.0822 
    119 H119      -80.4794   26.5522  -78.9762 H         1 UNK         0.0807 
    120 H120      -82.2239   26.3510  -78.9874 H         1 UNK         0.0807 
    121 H121      -81.1979   25.1184  -78.2549 H         1 UNK         0.0807 
    122 H122      -82.2444   25.8268  -75.4831 H         1 UNK         0.2946 
    123 H123      -85.5911   26.9092  -75.1880 H         1 UNK         0.1144 
    124 H124      -85.8694   24.9385  -76.6975 H         1 UNK         0.0793 
    125 H125      -86.0852   24.4758  -75.0178 H         1 UNK         0.0793 
    126 H126      -84.5823   24.0865  -75.8562 H         1 UNK         0.0793 
    127 H127      -83.9009   25.1024  -73.6922 H         1 UNK         0.2896 
@<TRIPOS>BOND
     1    1    2 1    
     2    1   67 1    
     3    1   68 1    
     4    1   69 1    
     5    2    3 2    
     6    2    4 am   BACKBONE|DICT|INTERRES
     7    4    5 1    
     8    4   70 1    
     9    5    6 1    
    10    5   65 1    
    11    5   71 1    
    12    6    7 1    
    13    6   72 1    
    14    6   73 1    
    15    7    8 1    
    16    8    9 1    
    17    8   74 1    
    18    8   75 1    
    19    9   10 ar   
    20    9   14 ar   
    21   10   11 ar   
    22   10   76 1    
    23   11   12 ar   
    24   11   48 1    
    25   12   13 ar   
    26   12   77 1    
    27   13   14 ar   
    28   13   15 1    
    29   14   78 1    
    30   15   16 1    
    31   15   79 1    
    32   15   80 1    
    33   16   17 1    
    34   17   18 1    
    35   17   81 1    
    36   17   82 1    
    37   18   19 1    
    38   18   22 1    
    39   18   83 1    
    40   19   20 am   BACKBONE|DICT|INTERRES
    41   19   21 2    
    42   20   84 1    
    43   20   85 1    
    44   22   23 am   BACKBONE|DICT|INTERRES
    45   22   86 1    
    46   23   24 2    
    47   23   25 1    
    48   25   26 1    
    49   25   27 1    
    50   25   87 1    
    51   26   88 1    
    52   26   89 1    
    53   26   90 1    
    54   27   28 am   BACKBONE|DICT|INTERRES
    55   27   91 1    
    56   28   29 2    
    57   28   30 1    
    58   30   31 1    
    59   30   32 1    
    60   30   92 1    
    61   31   93 1    
    62   31   94 1    
    63   31   95 1    
    64   32   33 am   BACKBONE|DICT|INTERRES
    65   32   96 1    
    66   33   34 2    
    67   33   35 1    
    68   35   36 1    
    69   35   37 1    
    70   35   97 1    
    71   36   98 1    
    72   36   99 1    
    73   36  100 1    
    74   37   38 am   BACKBONE|DICT|INTERRES
    75   37  101 1    
    76   38   39 2    
    77   38   40 1    
    78   40   41 1    
    79   40   42 1    
    80   40  102 1    
    81   41  103 1    
    82   41  104 1    
    83   41  105 1    
    84   42   43 am   BACKBONE|DICT|INTERRES
    85   42  106 1    
    86   43   44 2    
    87   43   45 1    
    88   45   46 1    
    89   45   49 1    
    90   45  107 1    
    91   46   47 1    
    92   46  108 1    
    93   46  109 1    
    94   47   48 1    
    95   48  110 1    
    96   48  111 1    
    97   49   50 am   BACKBONE|DICT|INTERRES
    98   49  112 1    
    99   50   51 2    
   100   50   52 1    
   101   52   53 1    
   102   52   54 1    
   103   52  113 1    
   104   53  114 1    
   105   53  115 1    
   106   53  116 1    
   107   54   55 am   BACKBONE|DICT|INTERRES
   108   54  117 1    
   109   55   56 2    
   110   55   57 1    
   111   57   58 1    
   112   57   59 1    
   113   57  118 1    
   114   58  119 1    
   115   58  120 1    
   116   58  121 1    
   117   59   60 am   BACKBONE|DICT|INTERRES
   118   59  122 1    
   119   60   61 2    
   120   60   62 1    
   121   62   63 1    
   122   62   64 1    
   123   62  123 1    
   124   63  124 1    
   125   63  125 1    
   126   63  126 1    
   127   64   65 am   BACKBONE|DICT|INTERRES
   128   64  127 1    
   129   65   66 2    
@<TRIPOS>SUBSTRUCTURE
     1 UNK         1 GROUP             0       ****    0 ROOT    
