@<TRIPOS>MOLECULE
3R135
127   129    1
SMALL
USER_CHARGES


@<TRIPOS>ATOM
      1 CA        -83.2628   27.7948  -76.4327 C.3       0 UNK        -0.1998 
      2 C         -82.2977   27.2995  -75.3670 C.2       0 UNK         0.4909 
      3 O         -81.9299   26.1245  -75.3783 O.2       0 UNK        -0.5240 
      4 N         -81.8720   28.1909  -74.4583 N.am      1 UNK        -0.4739 
      5 CA        -80.9549   27.9169  -73.3404 C.3       1 UNK         0.0864 
      6 C6        -81.6202   27.0058  -72.2675 C.3       11 UNK        -0.0881 
      7 S7        -81.0585   27.0997  -70.5231 S.3       11 UNK        -0.2682 
      8 C8        -80.2135   28.7050  -70.2805 C.3       11 UNK         0.0289 
      9 C9        -78.7913   28.7301  -70.8293 C.ar      11 UNK        -0.0687 
     10 C10       -77.9113   27.6746  -70.5711 C.ar      11 UNK        -0.0823 
     11 C11       -76.6282   27.6604  -71.1233 C.ar      11 UNK        -0.0830 
     12 C12       -76.2170   28.7261  -71.9276 C.ar      11 UNK        -0.1021 
     13 C13       -77.0621   29.8221  -72.1384 C.ar      11 UNK        -0.0753 
     14 C14       -78.3483   29.8164  -71.5901 C.ar      11 UNK        -0.0933 
     15 C15       -76.6029   31.0006  -72.9840 C.3       11 UNK         0.0166 
     16 S16       -75.8071   32.3292  -72.0101 S.3       11 UNK        -0.2615 
     17 C17       -74.3346   31.5303  -71.2674 C.3       11 UNK        -0.0865 
     18 CA        -73.0732   31.5083  -72.1751 C.3       10 UNK         0.0862 
     19 C         -71.9061   30.7762  -71.4508 C.2       10 UNK         0.5551 
     20 N         -71.5588   29.5509  -71.8297 N.am      10 UNK        -0.7319 
     21 O         -71.3128   31.3313  -70.5295 O.2       10 UNK        -0.5018 
     22 N         -73.3786   30.9696  -73.5047 N.am      10 UNK        -0.4509 
     23 C         -72.6081   31.0493  -74.5917 C.2       10 UNK         0.4899 
     24 O         -71.5220   31.6291  -74.6410 O.2       10 UNK        -0.4839 
     25 CA        -73.1667   30.3367  -75.8352 C.3       9 UNK         0.0222 
     26 CB        -72.9481   31.1698  -77.1098 C.3       9 UNK        -0.1966 
     27 N         -72.6031   29.0004  -76.0349 N.am      9 UNK        -0.4218 
     28 C         -72.5634   27.9876  -75.1577 C.2       9 UNK         0.5020 
     29 O         -72.9854   28.0509  -74.0004 O.2       9 UNK        -0.5274 
     30 CA        -72.0041   26.6609  -75.7062 C.3       8 UNK         0.0270 
     31 CB        -71.6734   25.6535  -74.5911 C.3       8 UNK        -0.1976 
     32 N         -72.9560   26.0615  -76.6473 N.am      8 UNK        -0.4313 
     33 C         -73.1490   26.4888  -77.9047 C.2       8 UNK         0.5041 
     34 O         -72.4482   27.3587  -78.4280 O.2       8 UNK        -0.5577 
     35 CA        -74.3476   25.9239  -78.6888 C.3       7 UNK         0.0284 
     36 CB        -74.0630   25.7763  -80.1993 C.3       7 UNK        -0.1958 
     37 N         -74.9209   24.7030  -78.1140 N.am      7 UNK        -0.4454 
     38 C         -74.4068   23.4662  -78.1196 C.2       7 UNK         0.5089 
     39 O         -73.3251   23.1704  -78.6299 O.2       7 UNK        -0.5125 
     40 CA        -75.2616   22.3810  -77.4340 C.3       6 UNK         0.0408 
     41 CB        -74.4869   21.0671  -77.1983 C.3       6 UNK        -0.1791 
     42 N         -75.9040   22.8308  -76.1915 N.am      6 UNK        -0.4762 
     43 C         -75.2936   23.2788  -75.0816 C.2       6 UNK         0.5007 
     44 O         -74.0750   23.4398  -75.0156 O.2       6 UNK        -0.5032 
     45 CA        -76.1589   23.5858  -73.8343 C.3       5 UNK         0.0783 
     46 C46       -75.6903   24.8650  -73.0949 C.3       11 UNK        -0.0857 
     47 S47       -76.3342   24.9103  -71.3939 S.3       11 UNK        -0.2512 
     48 C48       -75.6837   26.5081  -70.8127 C.3       11 UNK         0.0225 
     49 N         -77.5945   23.6367  -74.1328 N.am      5 UNK        -0.4615 
     50 C         -78.4153   22.5820  -74.2098 C.2       4 UNK         0.5053 
     51 O         -78.0722   21.4266  -73.9606 O.2       4 UNK        -0.5105 
     52 CA        -79.8461   22.8575  -74.7093 C.3       4 UNK         0.0263 
     53 CB        -80.7743   23.1860  -73.5306 C.3       4 UNK        -0.1981 
     54 N         -79.8974   23.9375  -75.7032 N.am      4 UNK        -0.4224 
     55 C         -79.3157   23.8755  -76.9117 C.2       3 UNK         0.4895 
     56 O         -78.7511   22.8717  -77.3467 O.2       3 UNK        -0.5091 
     57 CA        -79.2955   25.1627  -77.7511 C.3       3 UNK         0.0250 
     58 CB        -80.6090   25.3414  -78.5288 C.3       3 UNK        -0.1996 
     59 N         -79.0197   26.3497  -76.9379 N.am      3 UNK        -0.4254 
     60 C         -77.8396   26.6042  -76.3527 C.2       2 UNK         0.5004 
     61 O         -76.8495   25.8865  -76.4755 O.2       2 UNK        -0.5226 
     62 CA        -77.7442   27.8565  -75.4670 C.3       2 UNK         0.0269 
     63 CB        -77.2783   29.0586  -76.3039 C.3       2 UNK        -0.1926 
     64 N         -79.0001   28.1832  -74.7860 N.am      2 UNK        -0.4687 
     65 C         -79.5933   27.4022  -73.8682 C.2       1 UNK         0.5165 
     66 O         -79.1415   26.3117  -73.5153 O.2       1 UNK        -0.5079 
     67 H67       -82.8188   27.6856  -77.4216 H         1 UNK         0.0900 
     68 H68       -84.1811   27.2090  -76.4053 H         1 UNK         0.0900 
     69 H69       -83.5251   28.8431  -76.2913 H         1 UNK         0.0900 
     70 H70       -82.2071   29.1431  -74.5176 H         1 UNK         0.2959 
     71 H71       -80.7643   28.8926  -72.8992 H         1 UNK         0.1079 
     72 H72       -82.6843   27.2436  -72.2251 H         1 UNK         0.0837 
     73 H73       -81.5910   25.9622  -72.5810 H         1 UNK         0.0837 
     74 H74       -80.1595   28.8985  -69.2085 H         1 UNK         0.0685 
     75 H75       -80.8233   29.5073  -70.6979 H         1 UNK         0.0685 
     76 H76       -78.2344   26.8434  -69.9594 H         1 UNK         0.1434 
     77 H77       -75.2276   28.7128  -72.3643 H         1 UNK         0.1329 
     78 H78       -79.0082   30.6542  -71.7693 H         1 UNK         0.1335 
     79 H79       -77.4632   31.4313  -73.4986 H         1 UNK         0.0680 
     80 H80       -75.9414   30.6568  -73.7761 H         1 UNK         0.0680 
     81 H81       -74.5900   30.5286  -70.9256 H         1 UNK         0.1032 
     82 H82       -74.1065   32.0838  -70.3544 H         1 UNK         0.1032 
     83 H83       -72.7516   32.5414  -72.3201 H         1 UNK         0.0461 
     84 H84       -72.0590   29.0833  -72.5791 H         1 UNK         0.3453 
     85 H85       -70.8029   29.0820  -71.3575 H         1 UNK         0.3453 
     86 H86       -74.2157   30.4126  -73.5606 H         1 UNK         0.2984 
     87 H87       -74.2439   30.2137  -75.7067 H         1 UNK         0.0554 
     88 H88       -73.3602   32.1734  -76.9959 H         1 UNK         0.0847 
     89 H89       -73.4383   30.7154  -77.9712 H         1 UNK         0.0847 
     90 H90       -71.8885   31.2778  -77.3459 H         1 UNK         0.0847 
     91 H91       -72.2844   28.7851  -76.9748 H         1 UNK         0.3141 
     92 H92       -71.0736   26.8817  -76.2338 H         1 UNK         0.0743 
     93 H93       -70.9215   26.0586  -73.9128 H         1 UNK         0.0784 
     94 H94       -71.2778   24.7235  -74.9996 H         1 UNK         0.0784 
     95 H95       -72.5496   25.4084  -73.9924 H         1 UNK         0.0784 
     96 H96       -73.5647   25.3407  -76.2794 H         1 UNK         0.3213 
     97 H97       -75.1306   26.6770  -78.5876 H         1 UNK         0.0855 
     98 H98       -73.2183   25.1148  -80.3924 H         1 UNK         0.0814 
     99 H99       -73.8222   26.7415  -80.6463 H         1 UNK         0.0814 
    100 H100      -74.9292   25.3826  -80.7310 H         1 UNK         0.0814 
    101 H101      -75.7735   24.8592  -77.5770 H         1 UNK         0.3105 
    102 H102      -76.0742   22.1598  -78.1273 H         1 UNK         0.0547 
    103 H103      -75.1218   20.3085  -76.7409 H         1 UNK         0.0837 
    104 H104      -73.6224   21.2171  -76.5508 H         1 UNK         0.0837 
    105 H105      -74.1196   20.6552  -78.1390 H         1 UNK         0.0837 
    106 H106      -76.9161   22.7786  -76.1908 H         1 UNK         0.3020 
    107 H107      -75.9814   22.7398  -73.1662 H         1 UNK         0.1245 
    108 H108      -75.9989   25.7639  -73.6302 H         1 UNK         0.0781 
    109 H109      -74.6036   24.9080  -73.0164 H         1 UNK         0.0781 
    110 H110      -74.6932   26.6820  -71.2370 H         1 UNK         0.0836 
    111 H111      -75.5457   26.4546  -69.7320 H         1 UNK         0.0836 
    112 H112      -77.9832   24.5584  -74.2941 H         1 UNK         0.3022 
    113 H113      -80.2140   21.9490  -75.1908 H         1 UNK         0.0747 
    114 H114      -81.7792   23.4399  -73.8689 H         1 UNK         0.0793 
    115 H115      -80.8612   22.3325  -72.8572 H         1 UNK         0.0793 
    116 H116      -80.3936   24.0213  -72.9431 H         1 UNK         0.0793 
    117 H117      -80.3796   24.7907  -75.4337 H         1 UNK         0.3047 
    118 H118      -78.4874   25.0662  -78.4799 H         1 UNK         0.0822 
    119 H119      -80.5863   26.2382  -79.1480 H         1 UNK         0.0807 
    120 H120      -81.4717   25.4106  -77.8668 H         1 UNK         0.0807 
    121 H121      -80.7815   24.4942  -79.1940 H         1 UNK         0.0807 
    122 H122      -79.7925   26.9721  -76.7544 H         1 UNK         0.2946 
    123 H123      -76.9936   27.6598  -74.6985 H         1 UNK         0.1144 
    124 H124      -77.1739   29.9558  -75.6963 H         1 UNK         0.0793 
    125 H125      -77.9763   29.2837  -77.1113 H         1 UNK         0.0793 
    126 H126      -76.3064   28.8611  -76.7592 H         1 UNK         0.0793 
    127 H127      -79.4495   29.0484  -75.0485 H         1 UNK         0.2896 
@<TRIPOS>BOND
     1    1    2 1    
     2    1   67 1    
     3    1   68 1    
     4    1   69 1    
     5    2    3 2    
     6    2    4 am   BACKBONE|DICT|INTERRES
     7    4    5 1    
     8    4   70 1    
     9    5    6 1    
    10    5   65 1    
    11    5   71 1    
    12    6    7 1    
    13    6   72 1    
    14    6   73 1    
    15    7    8 1    
    16    8    9 1    
    17    8   74 1    
    18    8   75 1    
    19    9   10 ar   
    20    9   14 ar   
    21   10   11 ar   
    22   10   76 1    
    23   11   12 ar   
    24   11   48 1    
    25   12   13 ar   
    26   12   77 1    
    27   13   14 ar   
    28   13   15 1    
    29   14   78 1    
    30   15   16 1    
    31   15   79 1    
    32   15   80 1    
    33   16   17 1    
    34   17   18 1    
    35   17   81 1    
    36   17   82 1    
    37   18   19 1    
    38   18   22 1    
    39   18   83 1    
    40   19   20 am   BACKBONE|DICT|INTERRES
    41   19   21 2    
    42   20   84 1    
    43   20   85 1    
    44   22   23 am   BACKBONE|DICT|INTERRES
    45   22   86 1    
    46   23   24 2    
    47   23   25 1    
    48   25   26 1    
    49   25   27 1    
    50   25   87 1    
    51   26   88 1    
    52   26   89 1    
    53   26   90 1    
    54   27   28 am   BACKBONE|DICT|INTERRES
    55   27   91 1    
    56   28   29 2    
    57   28   30 1    
    58   30   31 1    
    59   30   32 1    
    60   30   92 1    
    61   31   93 1    
    62   31   94 1    
    63   31   95 1    
    64   32   33 am   BACKBONE|DICT|INTERRES
    65   32   96 1    
    66   33   34 2    
    67   33   35 1    
    68   35   36 1    
    69   35   37 1    
    70   35   97 1    
    71   36   98 1    
    72   36   99 1    
    73   36  100 1    
    74   37   38 am   BACKBONE|DICT|INTERRES
    75   37  101 1    
    76   38   39 2    
    77   38   40 1    
    78   40   41 1    
    79   40   42 1    
    80   40  102 1    
    81   41  103 1    
    82   41  104 1    
    83   41  105 1    
    84   42   43 am   BACKBONE|DICT|INTERRES
    85   42  106 1    
    86   43   44 2    
    87   43   45 1    
    88   45   46 1    
    89   45   49 1    
    90   45  107 1    
    91   46   47 1    
    92   46  108 1    
    93   46  109 1    
    94   47   48 1    
    95   48  110 1    
    96   48  111 1    
    97   49   50 am   BACKBONE|DICT|INTERRES
    98   49  112 1    
    99   50   51 2    
   100   50   52 1    
   101   52   53 1    
   102   52   54 1    
   103   52  113 1    
   104   53  114 1    
   105   53  115 1    
   106   53  116 1    
   107   54   55 am   BACKBONE|DICT|INTERRES
   108   54  117 1    
   109   55   56 2    
   110   55   57 1    
   111   57   58 1    
   112   57   59 1    
   113   57  118 1    
   114   58  119 1    
   115   58  120 1    
   116   58  121 1    
   117   59   60 am   BACKBONE|DICT|INTERRES
   118   59  122 1    
   119   60   61 2    
   120   60   62 1    
   121   62   63 1    
   122   62   64 1    
   123   62  123 1    
   124   63  124 1    
   125   63  125 1    
   126   63  126 1    
   127   64   65 am   BACKBONE|DICT|INTERRES
   128   64  127 1    
   129   65   66 2    
@<TRIPOS>SUBSTRUCTURE
     1 UNK         1 GROUP             0       ****    0 ROOT    
