@<TRIPOS>MOLECULE
3R135
127   129    1
SMALL
USER_CHARGES


@<TRIPOS>ATOM
      1 CA        -83.0239   27.3973  -70.5207 C.3       0 UNK        -0.1998 
      2 C         -83.2466   27.4912  -72.0227 C.2       0 UNK         0.4909 
      3 O         -84.3791   27.3512  -72.4850 O.2       0 UNK        -0.5240 
      4 N         -82.1723   27.7278  -72.7870 N.am      1 UNK        -0.4739 
      5 CA        -82.1928   27.8577  -74.2517 C.3       1 UNK         0.0864 
      6 C6        -80.8756   28.4592  -74.8063 C.3       11 UNK        -0.0881 
      7 S7        -80.4460   30.0774  -74.0831 S.3       11 UNK        -0.2682 
      8 C8        -78.6476   30.1422  -74.4163 C.3       11 UNK         0.0289 
      9 C9        -77.7479   29.4311  -73.3996 C.ar      11 UNK        -0.0687 
     10 C10       -78.2308   28.4817  -72.4888 C.ar      11 UNK        -0.0823 
     11 C11       -77.3769   27.8680  -71.5693 C.ar      11 UNK        -0.0830 
     12 C12       -76.0241   28.2135  -71.5513 C.ar      11 UNK        -0.1021 
     13 C13       -75.5200   29.1481  -72.4584 C.ar      11 UNK        -0.0753 
     14 C14       -76.3835   29.7448  -73.3829 C.ar      11 UNK        -0.0933 
     15 C15       -74.0417   29.5035  -72.4399 C.3       11 UNK         0.0166 
     16 S16       -73.7585   31.1180  -71.6588 S.3       11 UNK        -0.2615 
     17 C17       -71.9670   31.0559  -71.3183 C.3       11 UNK        -0.0865 
     18 CA        -71.1222   31.7078  -72.4434 C.3       10 UNK         0.0862 
     19 C         -69.7228   32.1231  -71.9111 C.2       10 UNK         0.5551 
     20 N         -69.5857   33.3451  -71.4160 N.am      10 UNK        -0.7319 
     21 O         -68.7776   31.3361  -71.9049 O.2       10 UNK        -0.5018 
     22 N         -71.0022   30.8249  -73.6145 N.am      10 UNK        -0.4509 
     23 C         -70.6474   31.2454  -74.8354 C.2       10 UNK         0.4899 
     24 O         -70.5613   32.4349  -75.1442 O.2       10 UNK        -0.4839 
     25 CA        -70.2920   30.1824  -75.8936 C.3       9 UNK         0.0222 
     26 CB        -68.7976   30.2682  -76.2509 C.3       9 UNK        -0.1966 
     27 N         -70.5997   28.8024  -75.5013 N.am      9 UNK        -0.4218 
     28 C         -71.8105   28.2388  -75.5903 C.2       9 UNK         0.5020 
     29 O         -72.8262   28.8489  -75.9290 O.2       9 UNK        -0.5274 
     30 CA        -71.8924   26.7491  -75.2141 C.3       8 UNK         0.0270 
     31 CB        -72.1599   26.5720  -73.7113 C.3       8 UNK        -0.1976 
     32 N         -72.9412   26.0689  -75.9763 N.am      8 UNK        -0.4313 
     33 C         -72.8136   25.6959  -77.2590 C.2       8 UNK         0.5041 
     34 O         -71.7631   25.8050  -77.8944 O.2       8 UNK        -0.5577 
     35 CA        -74.0419   25.0869  -77.9653 C.3       7 UNK         0.0284 
     36 CB        -73.9315   23.5539  -78.0069 C.3       7 UNK        -0.1958 
     37 N         -75.3175   25.4524  -77.3511 N.am      7 UNK        -0.4454 
     38 C         -75.8426   26.6844  -77.3252 C.2       7 UNK         0.5089 
     39 O         -75.3695   27.6414  -77.9377 O.2       7 UNK        -0.5125 
     40 CA        -77.1102   26.8891  -76.4732 C.3       6 UNK         0.0408 
     41 CB        -78.3408   26.9818  -77.3890 C.3       6 UNK        -0.1791 
     42 N         -77.3477   25.8504  -75.4631 N.am      6 UNK        -0.4762 
     43 C         -76.5276   25.5176  -74.4531 C.2       6 UNK         0.5007 
     44 O         -75.4253   26.0320  -74.2706 O.2       6 UNK        -0.5032 
     45 CA        -76.9799   24.3438  -73.5654 C.3       5 UNK         0.0783 
     46 C46       -78.0460   24.7589  -72.5155 C.3       11 UNK        -0.0857 
     47 S47       -77.2893   25.1688  -70.9072 S.3       11 UNK        -0.2512 
     48 C48       -77.9194   26.8455  -70.5817 C.3       11 UNK         0.0225 
     49 N         -77.4522   23.2430  -74.4072 N.am      5 UNK        -0.4615 
     50 C         -76.6639   22.3025  -74.9437 C.2       4 UNK         0.5053 
     51 O         -75.4514   22.2329  -74.7454 O.2       4 UNK        -0.5105 
     52 CA        -77.3331   21.2578  -75.8555 C.3       4 UNK         0.0263 
     53 CB        -77.6787   19.9922  -75.0545 C.3       4 UNK        -0.1981 
     54 N         -78.5418   21.7530  -76.5189 N.am      4 UNK        -0.4224 
     55 C         -78.5482   22.6748  -77.4915 C.2       3 UNK         0.4895 
     56 O         -77.5307   23.1817  -77.9632 O.2       3 UNK        -0.5091 
     57 CA        -79.9268   23.1381  -77.9961 C.3       3 UNK         0.0250 
     58 CB        -80.4229   22.2162  -79.1216 C.3       3 UNK        -0.1996 
     59 N         -80.9617   23.2444  -76.9569 N.am      3 UNK        -0.4254 
     60 C         -80.8632   23.9876  -75.8461 C.2       2 UNK         0.5004 
     61 O         -79.8345   24.5737  -75.5010 O.2       2 UNK        -0.5226 
     62 CA        -82.1018   24.0708  -74.9410 C.3       2 UNK         0.0269 
     63 CB        -82.0316   22.9991  -73.8416 C.3       2 UNK        -0.1926 
     64 N         -82.1705   25.3931  -74.3162 N.am      2 UNK        -0.4687 
     65 C         -82.4766   26.5220  -74.9727 C.2       1 UNK         0.5165 
     66 O         -82.9294   26.5394  -76.1186 O.2       1 UNK        -0.5079 
     67 H67       -83.6162   28.1535  -70.0062 H         1 UNK         0.0900 
     68 H68       -81.9781   27.5459  -70.2521 H         1 UNK         0.0900 
     69 H69       -83.3316   26.4175  -70.1565 H         1 UNK         0.0900 
     70 H70       -81.2779   27.8772  -72.3469 H         1 UNK         0.2959 
     71 H71       -83.0099   28.5349  -74.5113 H         1 UNK         0.1079 
     72 H72       -80.0468   27.7654  -74.6509 H         1 UNK         0.0837 
     73 H73       -80.9523   28.6010  -75.8863 H         1 UNK         0.0837 
     74 H74       -78.3650   31.1954  -74.4519 H         1 UNK         0.0685 
     75 H75       -78.4518   29.7416  -75.4116 H         1 UNK         0.0685 
     76 H76       -79.2744   28.2149  -72.4803 H         1 UNK         0.1434 
     77 H77       -75.3628   27.7433  -70.8363 H         1 UNK         0.1329 
     78 H78       -75.9890   30.4682  -74.0836 H         1 UNK         0.1335 
     79 H79       -73.4798   28.7389  -71.9023 H         1 UNK         0.0680 
     80 H80       -73.6551   29.5234  -73.4586 H         1 UNK         0.0680 
     81 H81       -71.6446   30.0317  -71.1232 H         1 UNK         0.1032 
     82 H82       -71.8236   31.5893  -70.3760 H         1 UNK         0.1032 
     83 H83       -71.6325   32.6200  -72.7612 H         1 UNK         0.0461 
     84 H84       -68.6898   33.6292  -71.0512 H         1 UNK         0.3453 
     85 H85       -70.3577   33.9940  -71.4081 H         1 UNK         0.3453 
     86 H86       -71.0113   29.8335  -73.4347 H         1 UNK         0.2984 
     87 H87       -70.8643   30.4225  -76.7924 H         1 UNK         0.0554 
     88 H88       -68.5349   31.2670  -76.6026 H         1 UNK         0.0847 
     89 H89       -68.5375   29.5710  -77.0476 H         1 UNK         0.0847 
     90 H90       -68.1630   30.0505  -75.3907 H         1 UNK         0.0847 
     91 H91       -69.8199   28.2358  -75.1975 H         1 UNK         0.3141 
     92 H92       -70.9346   26.2780  -75.4463 H         1 UNK         0.0743 
     93 H93       -71.4023   27.0756  -73.1098 H         1 UNK         0.0784 
     94 H94       -73.1299   26.9774  -73.4275 H         1 UNK         0.0784 
     95 H95       -72.1490   25.5186  -73.4308 H         1 UNK         0.0784 
     96 H96       -73.8519   26.0062  -75.5297 H         1 UNK         0.3213 
     97 H97       -74.0464   25.4600  -78.9916 H         1 UNK         0.0855 
     98 H98       -73.9383   23.1221  -77.0052 H         1 UNK         0.0814 
     99 H99       -73.0050   23.2418  -78.4909 H         1 UNK         0.0814 
    100 H100      -74.7546   23.1112  -78.5685 H         1 UNK         0.0814 
    101 H101      -75.8233   24.7186  -76.8746 H         1 UNK         0.3105 
    102 H102      -76.9961   27.8350  -75.9413 H         1 UNK         0.0547 
    103 H103      -78.2555   27.8270  -78.0731 H         1 UNK         0.0837 
    104 H104      -78.4526   26.0826  -77.9949 H         1 UNK         0.0837 
    105 H105      -79.2600   27.1137  -76.8218 H         1 UNK         0.0837 
    106 H106      -78.2380   25.3577  -75.5325 H         1 UNK         0.3020 
    107 H107      -76.0915   23.9933  -73.0338 H         1 UNK         0.1245 
    108 H108      -78.7287   23.9298  -72.3226 H         1 UNK         0.0781 
    109 H109      -78.6800   25.5733  -72.8715 H         1 UNK         0.0781 
    110 H110      -79.0102   26.8267  -70.5897 H         1 UNK         0.0836 
    111 H111      -77.6290   27.1393  -69.5720 H         1 UNK         0.0836 
    112 H112      -78.4243   23.2858  -74.6870 H         1 UNK         0.3022 
    113 H113      -76.6095   20.9870  -76.6278 H         1 UNK         0.0747 
    114 H114      -76.7909   19.5831  -74.5699 H         1 UNK         0.0793 
    115 H115      -78.0814   19.2112  -75.6999 H         1 UNK         0.0793 
    116 H116      -78.4119   20.1953  -74.2729 H         1 UNK         0.0793 
    117 H117      -79.4266   21.3901  -76.1951 H         1 UNK         0.3047 
    118 H118      -79.7940   24.1369  -78.4157 H         1 UNK         0.0822 
    119 H119      -81.3372   22.5991  -79.5754 H         1 UNK         0.0807 
    120 H120      -80.6236   21.2069  -78.7599 H         1 UNK         0.0807 
    121 H121      -79.6798   22.1356  -79.9165 H         1 UNK         0.0807 
    122 H122      -81.8364   22.7775  -77.1502 H         1 UNK         0.2946 
    123 H123      -83.0010   23.9154  -75.5417 H         1 UNK         0.1144 
    124 H124      -82.0064   21.9970  -74.2718 H         1 UNK         0.0793 
    125 H125      -82.9020   23.0465  -73.1868 H         1 UNK         0.0793 
    126 H126      -81.1404   23.1109  -73.2224 H         1 UNK         0.0793 
    127 H127      -81.7876   25.4770  -73.3868 H         1 UNK         0.2896 
@<TRIPOS>BOND
     1    1    2 1    
     2    1   67 1    
     3    1   68 1    
     4    1   69 1    
     5    2    3 2    
     6    2    4 am   BACKBONE|DICT|INTERRES
     7    4    5 1    
     8    4   70 1    
     9    5    6 1    
    10    5   65 1    
    11    5   71 1    
    12    6    7 1    
    13    6   72 1    
    14    6   73 1    
    15    7    8 1    
    16    8    9 1    
    17    8   74 1    
    18    8   75 1    
    19    9   10 ar   
    20    9   14 ar   
    21   10   11 ar   
    22   10   76 1    
    23   11   12 ar   
    24   11   48 1    
    25   12   13 ar   
    26   12   77 1    
    27   13   14 ar   
    28   13   15 1    
    29   14   78 1    
    30   15   16 1    
    31   15   79 1    
    32   15   80 1    
    33   16   17 1    
    34   17   18 1    
    35   17   81 1    
    36   17   82 1    
    37   18   19 1    
    38   18   22 1    
    39   18   83 1    
    40   19   20 am   BACKBONE|DICT|INTERRES
    41   19   21 2    
    42   20   84 1    
    43   20   85 1    
    44   22   23 am   BACKBONE|DICT|INTERRES
    45   22   86 1    
    46   23   24 2    
    47   23   25 1    
    48   25   26 1    
    49   25   27 1    
    50   25   87 1    
    51   26   88 1    
    52   26   89 1    
    53   26   90 1    
    54   27   28 am   BACKBONE|DICT|INTERRES
    55   27   91 1    
    56   28   29 2    
    57   28   30 1    
    58   30   31 1    
    59   30   32 1    
    60   30   92 1    
    61   31   93 1    
    62   31   94 1    
    63   31   95 1    
    64   32   33 am   BACKBONE|DICT|INTERRES
    65   32   96 1    
    66   33   34 2    
    67   33   35 1    
    68   35   36 1    
    69   35   37 1    
    70   35   97 1    
    71   36   98 1    
    72   36   99 1    
    73   36  100 1    
    74   37   38 am   BACKBONE|DICT|INTERRES
    75   37  101 1    
    76   38   39 2    
    77   38   40 1    
    78   40   41 1    
    79   40   42 1    
    80   40  102 1    
    81   41  103 1    
    82   41  104 1    
    83   41  105 1    
    84   42   43 am   BACKBONE|DICT|INTERRES
    85   42  106 1    
    86   43   44 2    
    87   43   45 1    
    88   45   46 1    
    89   45   49 1    
    90   45  107 1    
    91   46   47 1    
    92   46  108 1    
    93   46  109 1    
    94   47   48 1    
    95   48  110 1    
    96   48  111 1    
    97   49   50 am   BACKBONE|DICT|INTERRES
    98   49  112 1    
    99   50   51 2    
   100   50   52 1    
   101   52   53 1    
   102   52   54 1    
   103   52  113 1    
   104   53  114 1    
   105   53  115 1    
   106   53  116 1    
   107   54   55 am   BACKBONE|DICT|INTERRES
   108   54  117 1    
   109   55   56 2    
   110   55   57 1    
   111   57   58 1    
   112   57   59 1    
   113   57  118 1    
   114   58  119 1    
   115   58  120 1    
   116   58  121 1    
   117   59   60 am   BACKBONE|DICT|INTERRES
   118   59  122 1    
   119   60   61 2    
   120   60   62 1    
   121   62   63 1    
   122   62   64 1    
   123   62  123 1    
   124   63  124 1    
   125   63  125 1    
   126   63  126 1    
   127   64   65 am   BACKBONE|DICT|INTERRES
   128   64  127 1    
   129   65   66 2    
@<TRIPOS>SUBSTRUCTURE
     1 UNK         1 GROUP             0       ****    0 ROOT    
