@<TRIPOS>MOLECULE
3R135
127   129    1
SMALL
USER_CHARGES


@<TRIPOS>ATOM
      1 CA        -85.1316   29.5711  -73.7776 C.3       0 UNK        -0.1998 
      2 C         -83.7223   29.0449  -74.0039 C.2       0 UNK         0.4909 
      3 O         -83.0842   29.4096  -74.9913 O.2       0 UNK        -0.5240 
      4 N         -83.2339   28.1883  -73.0973 N.am      1 UNK        -0.4739 
      5 CA        -81.8929   27.5879  -73.1470 C.3       1 UNK         0.0864 
      6 C6        -81.4602   27.0347  -71.7655 C.3       11 UNK        -0.0881 
      7 S7        -81.3304   28.3488  -70.5057 S.3       11 UNK        -0.2682 
      8 C8        -79.6590   28.0557  -69.8205 C.3       11 UNK         0.0289 
      9 C9        -78.4796   28.3203  -70.7617 C.ar      11 UNK        -0.0687 
     10 C10       -78.6042   29.0476  -71.9527 C.ar      11 UNK        -0.0823 
     11 C11       -77.5008   29.2604  -72.7844 C.ar      11 UNK        -0.0830 
     12 C12       -76.2479   28.7824  -72.3957 C.ar      11 UNK        -0.1021 
     13 C13       -76.0982   28.0707  -71.2010 C.ar      11 UNK        -0.0753 
     14 C14       -77.2182   27.8366  -70.3972 C.ar      11 UNK        -0.0933 
     15 C15       -74.7202   27.5995  -70.7549 C.3       11 UNK         0.0166 
     16 S16       -73.8998   26.5859  -72.0252 S.3       11 UNK        -0.2615 
     17 C17       -72.1442   27.0187  -71.7669 C.3       11 UNK        -0.0865 
     18 CA        -71.7638   28.4351  -72.2846 C.3       10 UNK         0.0862 
     19 C         -70.2525   28.7373  -72.0666 C.2       10 UNK         0.5551 
     20 N         -69.4938   29.1513  -73.0758 N.am      10 UNK        -0.7319 
     21 O         -69.7593   28.6107  -70.9484 O.2       10 UNK        -0.5018 
     22 N         -72.2121   28.6611  -73.6661 N.am      10 UNK        -0.4509 
     23 C         -72.6828   29.8239  -74.1359 C.2       10 UNK         0.4899 
     24 O         -72.8739   30.8152  -73.4299 O.2       10 UNK        -0.4839 
     25 CA        -73.0103   29.8975  -75.6427 C.3       9 UNK         0.0222 
     26 CB        -72.8769   31.3266  -76.2098 C.3       9 UNK        -0.1966 
     27 N         -72.2594   28.9409  -76.4669 N.am      9 UNK        -0.4218 
     28 C         -70.9249   28.8450  -76.5777 C.2       9 UNK         0.5020 
     29 O         -70.1369   29.5988  -76.0016 O.2       9 UNK        -0.5274 
     30 CA        -70.3860   27.6794  -77.4337 C.3       8 UNK         0.0270 
     31 CB        -68.8658   27.4748  -77.2624 C.3       8 UNK        -0.1976 
     32 N         -71.0865   26.4063  -77.2112 N.am      8 UNK        -0.4313 
     33 C         -71.3179   25.7865  -76.0440 C.2       8 UNK         0.5041 
     34 O         -71.0166   26.2589  -74.9472 O.2       8 UNK        -0.5577 
     35 CA        -72.0347   24.4236  -76.1257 C.3       7 UNK         0.0284 
     36 CB        -72.2221   23.7722  -74.7427 C.3       7 UNK        -0.1958 
     37 N         -73.3405   24.5495  -76.7777 N.am      7 UNK        -0.4454 
     38 C         -73.5332   24.6482  -78.1022 C.2       7 UNK         0.5089 
     39 O         -72.6182   24.5678  -78.9232 O.2       7 UNK        -0.5125 
     40 CA        -74.9604   24.9454  -78.6027 C.3       6 UNK         0.0408 
     41 CB        -75.6690   23.6432  -79.0059 C.3       6 UNK        -0.1791 
     42 N         -75.7881   25.6615  -77.6299 N.am      6 UNK        -0.4762 
     43 C         -75.5133   26.8663  -77.1057 C.2       6 UNK         0.5007 
     44 O         -74.5672   27.5644  -77.4717 O.2       6 UNK        -0.5032 
     45 CA        -76.4201   27.3604  -75.9556 C.3       5 UNK         0.0783 
     46 C46       -77.3623   28.4770  -76.4749 C.3       11 UNK        -0.0857 
     47 S47       -78.6324   29.0409  -75.2912 S.3       11 UNK        -0.2512 
     48 C48       -77.6734   30.0202  -74.0917 C.3       11 UNK         0.0225 
     49 N         -77.1403   26.2837  -75.2607 N.am      5 UNK        -0.4615 
     50 C         -76.5737   25.2390  -74.6355 C.2       4 UNK         0.5053 
     51 O         -75.3686   24.9962  -74.6587 O.2       4 UNK        -0.5105 
     52 CA        -77.5200   24.2717  -73.9135 C.3       4 UNK         0.0263 
     53 CB        -77.8341   24.7942  -72.5025 C.3       4 UNK        -0.1981 
     54 N         -78.7659   24.0858  -74.6560 N.am      4 UNK        -0.4224 
     55 C         -78.8893   23.4089  -75.8043 C.2       3 UNK         0.4895 
     56 O         -77.9771   22.7686  -76.3281 O.2       3 UNK        -0.5091 
     57 CA        -80.2776   23.4721  -76.4570 C.3       3 UNK         0.0250 
     58 CB        -80.3789   22.6523  -77.7566 C.3       3 UNK        -0.1996 
     59 N         -81.2680   22.9853  -75.4925 N.am      3 UNK        -0.4254 
     60 C         -82.4096   23.5498  -75.0722 C.2       2 UNK         0.5004 
     61 O         -83.0649   23.0392  -74.1636 O.2       2 UNK        -0.5226 
     62 CA        -82.9409   24.8618  -75.6938 C.3       2 UNK         0.0269 
     63 CB        -84.3981   24.6933  -76.1594 C.3       2 UNK        -0.1926 
     64 N         -82.8817   25.9568  -74.7226 N.am      2 UNK        -0.4687 
     65 C         -81.7575   26.4921  -74.2239 C.2       1 UNK         0.5165 
     66 O         -80.6300   26.1431  -74.5721 O.2       1 UNK        -0.5079 
     67 H67       -85.7726   29.3000  -74.6160 H         1 UNK         0.0900 
     68 H68       -85.1173   30.6577  -73.6967 H         1 UNK         0.0900 
     69 H69       -85.5758   29.1697  -72.8669 H         1 UNK         0.0900 
     70 H70       -83.7932   27.9412  -72.2929 H         1 UNK         0.2959 
     71 H71       -81.1898   28.3702  -73.4386 H         1 UNK         0.1079 
     72 H72       -82.1676   26.2824  -71.4115 H         1 UNK         0.0837 
     73 H73       -80.4967   26.5277  -71.8404 H         1 UNK         0.0837 
     74 H74       -79.5396   28.6907  -68.9417 H         1 UNK         0.0685 
     75 H75       -79.6136   27.0257  -69.4628 H         1 UNK         0.0685 
     76 H76       -79.5593   29.4541  -72.2487 H         1 UNK         0.1434 
     77 H77       -75.3825   28.9658  -73.0168 H         1 UNK         0.1329 
     78 H78       -77.1054   27.2900  -69.4708 H         1 UNK         0.1335 
     79 H79       -74.1223   28.4801  -70.5225 H         1 UNK         0.0680 
     80 H80       -74.7815   27.0180  -69.8338 H         1 UNK         0.0680 
     81 H81       -71.5413   26.2625  -72.2732 H         1 UNK         0.1032 
     82 H82       -71.9156   26.9229  -70.7038 H         1 UNK         0.1032 
     83 H83       -72.2776   29.1514  -71.6430 H         1 UNK         0.0461 
     84 H84       -68.5197   29.3469  -72.9105 H         1 UNK         0.3453 
     85 H85       -69.8780   29.2630  -74.0078 H         1 UNK         0.3453 
     86 H86       -72.0217   27.8952  -74.3051 H         1 UNK         0.2984 
     87 H87       -74.0588   29.6124  -75.7297 H         1 UNK         0.0554 
     88 H88       -73.1342   31.3589  -77.2684 H         1 UNK         0.0847 
     89 H89       -71.8631   31.7126  -76.0983 H         1 UNK         0.0847 
     90 H90       -73.5456   32.0181  -75.6958 H         1 UNK         0.0847 
     91 H91       -72.8396   28.2688  -76.9640 H         1 UNK         0.3141 
     92 H92       -70.5696   27.9564  -78.4728 H         1 UNK         0.0743 
     93 H93       -68.6090   27.2218  -76.2328 H         1 UNK         0.0784 
     94 H94       -68.4973   26.6759  -77.9058 H         1 UNK         0.0784 
     95 H95       -68.3149   28.3792  -77.5238 H         1 UNK         0.0784 
     96 H96       -71.4257   25.9338  -78.0447 H         1 UNK         0.3213 
     97 H97       -71.4034   23.7597  -76.7202 H         1 UNK         0.0855 
     98 H98       -72.8183   24.3994  -74.0788 H         1 UNK         0.0814 
     99 H99       -71.2601   23.6083  -74.2555 H         1 UNK         0.0814 
    100 H100      -72.7162   22.8039  -74.8217 H         1 UNK         0.0814 
    101 H101      -74.1350   24.6796  -76.1557 H         1 UNK         0.3105 
    102 H102      -74.8724   25.5777  -79.4884 H         1 UNK         0.0547 
    103 H103      -75.0919   23.1007  -79.7560 H         1 UNK         0.0837 
    104 H104      -75.8034   22.9763  -78.1530 H         1 UNK         0.0837 
    105 H105      -76.6516   23.8399  -79.4351 H         1 UNK         0.0837 
    106 H106      -76.5739   25.1538  -77.2487 H         1 UNK         0.3020 
    107 H107      -75.7519   27.8003  -75.2133 H         1 UNK         0.1245 
    108 H108      -77.8993   28.1306  -77.3604 H         1 UNK         0.0781 
    109 H109      -76.7829   29.3436  -76.7999 H         1 UNK         0.0781 
    110 H110      -78.2048   30.9524  -73.8946 H         1 UNK         0.0836 
    111 H111      -76.7086   30.3042  -74.5146 H         1 UNK         0.0836 
    112 H112      -78.1403   26.4116  -75.1762 H         1 UNK         0.3022 
    113 H113      -77.0194   23.3051  -73.8252 H         1 UNK         0.0747 
    114 H114      -78.4890   24.1129  -71.9596 H         1 UNK         0.0793 
    115 H115      -76.9197   24.9047  -71.9175 H         1 UNK         0.0793 
    116 H116      -78.3145   25.7729  -72.5341 H         1 UNK         0.0793 
    117 H117      -79.5550   24.6611  -74.3697 H         1 UNK         0.3047 
    118 H118      -80.4143   24.5223  -76.7064 H         1 UNK         0.0822 
    119 H119      -81.3630   22.7553  -78.2139 H         1 UNK         0.0807 
    120 H120      -80.2019   21.5909  -77.5786 H         1 UNK         0.0807 
    121 H121      -79.6443   22.9881  -78.4899 H         1 UNK         0.0807 
    122 H122      -80.9870   22.1379  -75.0190 H         1 UNK         0.2946 
    123 H123      -82.3732   25.1526  -76.5745 H         1 UNK         0.1144 
    124 H124      -84.4816   23.8865  -76.8889 H         1 UNK         0.0793 
    125 H125      -84.7692   25.6001  -76.6376 H         1 UNK         0.0793 
    126 H126      -85.0671   24.4544  -75.3315 H         1 UNK         0.0793 
    127 H127      -83.7626   26.2907  -74.3603 H         1 UNK         0.2896 
@<TRIPOS>BOND
     1    1    2 1    
     2    1   67 1    
     3    1   68 1    
     4    1   69 1    
     5    2    3 2    
     6    2    4 am   BACKBONE|DICT|INTERRES
     7    4    5 1    
     8    4   70 1    
     9    5    6 1    
    10    5   65 1    
    11    5   71 1    
    12    6    7 1    
    13    6   72 1    
    14    6   73 1    
    15    7    8 1    
    16    8    9 1    
    17    8   74 1    
    18    8   75 1    
    19    9   10 ar   
    20    9   14 ar   
    21   10   11 ar   
    22   10   76 1    
    23   11   12 ar   
    24   11   48 1    
    25   12   13 ar   
    26   12   77 1    
    27   13   14 ar   
    28   13   15 1    
    29   14   78 1    
    30   15   16 1    
    31   15   79 1    
    32   15   80 1    
    33   16   17 1    
    34   17   18 1    
    35   17   81 1    
    36   17   82 1    
    37   18   19 1    
    38   18   22 1    
    39   18   83 1    
    40   19   20 am   BACKBONE|DICT|INTERRES
    41   19   21 2    
    42   20   84 1    
    43   20   85 1    
    44   22   23 am   BACKBONE|DICT|INTERRES
    45   22   86 1    
    46   23   24 2    
    47   23   25 1    
    48   25   26 1    
    49   25   27 1    
    50   25   87 1    
    51   26   88 1    
    52   26   89 1    
    53   26   90 1    
    54   27   28 am   BACKBONE|DICT|INTERRES
    55   27   91 1    
    56   28   29 2    
    57   28   30 1    
    58   30   31 1    
    59   30   32 1    
    60   30   92 1    
    61   31   93 1    
    62   31   94 1    
    63   31   95 1    
    64   32   33 am   BACKBONE|DICT|INTERRES
    65   32   96 1    
    66   33   34 2    
    67   33   35 1    
    68   35   36 1    
    69   35   37 1    
    70   35   97 1    
    71   36   98 1    
    72   36   99 1    
    73   36  100 1    
    74   37   38 am   BACKBONE|DICT|INTERRES
    75   37  101 1    
    76   38   39 2    
    77   38   40 1    
    78   40   41 1    
    79   40   42 1    
    80   40  102 1    
    81   41  103 1    
    82   41  104 1    
    83   41  105 1    
    84   42   43 am   BACKBONE|DICT|INTERRES
    85   42  106 1    
    86   43   44 2    
    87   43   45 1    
    88   45   46 1    
    89   45   49 1    
    90   45  107 1    
    91   46   47 1    
    92   46  108 1    
    93   46  109 1    
    94   47   48 1    
    95   48  110 1    
    96   48  111 1    
    97   49   50 am   BACKBONE|DICT|INTERRES
    98   49  112 1    
    99   50   51 2    
   100   50   52 1    
   101   52   53 1    
   102   52   54 1    
   103   52  113 1    
   104   53  114 1    
   105   53  115 1    
   106   53  116 1    
   107   54   55 am   BACKBONE|DICT|INTERRES
   108   54  117 1    
   109   55   56 2    
   110   55   57 1    
   111   57   58 1    
   112   57   59 1    
   113   57  118 1    
   114   58  119 1    
   115   58  120 1    
   116   58  121 1    
   117   59   60 am   BACKBONE|DICT|INTERRES
   118   59  122 1    
   119   60   61 2    
   120   60   62 1    
   121   62   63 1    
   122   62   64 1    
   123   62  123 1    
   124   63  124 1    
   125   63  125 1    
   126   63  126 1    
   127   64   65 am   BACKBONE|DICT|INTERRES
   128   64  127 1    
   129   65   66 2    
@<TRIPOS>SUBSTRUCTURE
     1 UNK         1 GROUP             0       ****    0 ROOT    
