@<TRIPOS>MOLECULE
3R135
127   129    1
SMALL
USER_CHARGES


@<TRIPOS>ATOM
      1 CA        -82.4701   25.8497  -70.7254 C.3       0 UNK        -0.1998 
      2 C         -83.0401   26.4099  -72.0192 C.2       0 UNK         0.4909 
      3 O         -84.1765   26.0962  -72.3748 O.2       0 UNK        -0.5240 
      4 N         -82.2610   27.2423  -72.7224 N.am      1 UNK        -0.4739 
      5 CA        -82.6442   27.8613  -73.9997 C.3       1 UNK         0.0864 
      6 C6        -81.7718   29.0937  -74.3474 C.3       11 UNK        -0.0881 
      7 S7        -81.8406   30.4019  -73.0783 S.3       11 UNK        -0.2682 
      8 C8        -80.1515   31.1002  -73.1825 C.3       11 UNK         0.0289 
      9 C9        -79.0255   30.2674  -72.5600 C.ar      11 UNK        -0.0687 
     10 C10       -79.2573   29.1147  -71.8000 C.ar      11 UNK        -0.0823 
     11 C11       -78.1988   28.3956  -71.2384 C.ar      11 UNK        -0.0830 
     12 C12       -76.8863   28.8461  -71.4205 C.ar      11 UNK        -0.1021 
     13 C13       -76.6381   30.0201  -72.1411 C.ar      11 UNK        -0.0753 
     14 C14       -77.7085   30.7098  -72.7201 C.ar      11 UNK        -0.0933 
     15 C15       -75.2331   30.6044  -72.2307 C.3       11 UNK         0.0166 
     16 S16       -74.4829   30.3788  -73.8735 S.3       11 UNK        -0.2615 
     17 C17       -73.4823   28.8725  -73.6278 C.3       11 UNK        -0.0865 
     18 CA        -71.9546   29.1405  -73.6382 C.3       10 UNK         0.0862 
     19 C         -71.1614   27.8441  -73.2949 C.2       10 UNK         0.5551 
     20 N         -70.3068   27.3226  -74.1691 N.am      10 UNK        -0.7319 
     21 O         -71.3150   27.3077  -72.2007 O.2       10 UNK        -0.5018 
     22 N         -71.5179   29.7922  -74.8841 N.am      10 UNK        -0.4509 
     23 C         -70.4025   30.5266  -75.0017 C.2       10 UNK         0.4899 
     24 O         -69.6795   30.8155  -74.0465 O.2       10 UNK        -0.4839 
     25 CA        -70.0251   31.0244  -76.4154 C.3       9 UNK         0.0222 
     26 CB        -68.5107   31.2856  -76.5651 C.3       9 UNK        -0.1966 
     27 N         -70.5072   30.1619  -77.5029 N.am      9 UNK        -0.4218 
     28 C         -70.2335   28.8623  -77.6872 C.2       9 UNK         0.5020 
     29 O         -69.4927   28.1938  -76.9618 O.2       9 UNK        -0.5274 
     30 CA        -70.9721   28.1765  -78.8510 C.3       8 UNK         0.0270 
     31 CB        -69.9755   27.6092  -79.8757 C.3       8 UNK        -0.1976 
     32 N         -71.8519   27.1025  -78.3779 N.am      8 UNK        -0.4313 
     33 C         -72.8209   27.2482  -77.4634 C.2       8 UNK         0.5041 
     34 O         -73.1092   28.3334  -76.9492 O.2       8 UNK        -0.5577 
     35 CA        -73.5631   25.9639  -77.0439 C.3       7 UNK         0.0284 
     36 CB        -72.6064   24.9643  -76.3695 C.3       7 UNK        -0.1958 
     37 N         -74.6444   26.2544  -76.1056 N.am      7 UNK        -0.4454 
     38 C         -75.8239   26.8061  -76.4057 C.2       7 UNK         0.5089 
     39 O         -76.2243   26.9893  -77.5570 O.2       7 UNK        -0.5125 
     40 CA        -76.6964   27.1990  -75.1983 C.3       6 UNK         0.0408 
     41 CB        -78.0348   27.8356  -75.6035 C.3       6 UNK        -0.1791 
     42 N         -76.9496   26.0615  -74.3105 N.am      6 UNK        -0.4762 
     43 C         -76.0933   25.5979  -73.3877 C.2       6 UNK         0.5007 
     44 O         -74.9657   26.0643  -73.2249 O.2       6 UNK        -0.5032 
     45 CA        -76.5203   24.3917  -72.5364 C.3       5 UNK         0.0783 
     46 C46       -77.1965   24.8005  -71.2056 C.3       11 UNK        -0.0857 
     47 S47       -78.7916   25.6788  -71.3770 S.3       11 UNK        -0.2512 
     48 C48       -78.5011   27.1768  -70.3777 C.3       11 UNK         0.0225 
     49 N         -77.2983   23.4259  -73.3169 N.am      5 UNK        -0.4615 
     50 C         -77.0539   22.1076  -73.3311 C.2       4 UNK         0.5053 
     51 O         -76.2356   21.5566  -72.5935 O.2       4 UNK        -0.5105 
     52 CA        -77.8251   21.2440  -74.3493 C.3       4 UNK         0.0263 
     53 CB        -79.0477   20.5943  -73.6814 C.3       4 UNK        -0.1981 
     54 N         -78.2652   21.9837  -75.5332 N.am      4 UNK        -0.4224 
     55 C         -77.4668   22.6113  -76.4091 C.2       3 UNK         0.4895 
     56 O         -76.2401   22.5076  -76.4109 O.2       3 UNK        -0.5091 
     57 CA        -78.1414   23.5412  -77.4384 C.3       3 UNK         0.0250 
     58 CB        -78.0392   22.9424  -78.8509 C.3       3 UNK        -0.1996 
     59 N         -79.5463   23.8831  -77.1653 N.am      3 UNK        -0.4254 
     60 C         -80.0140   24.4889  -76.0650 C.2       2 UNK         0.5004 
     61 O         -79.3199   24.7635  -75.0803 O.2       2 UNK        -0.5226 
     62 CA        -81.5152   24.7884  -76.0405 C.3       2 UNK         0.0269 
     63 CB        -82.3178   23.5293  -75.6700 C.3       2 UNK        -0.1926 
     64 N         -81.7592   25.8221  -75.0421 N.am      2 UNK        -0.4687 
     65 C         -82.6108   26.8468  -75.1621 C.2       1 UNK         0.5165 
     66 O         -83.3454   27.0146  -76.1368 O.2       1 UNK        -0.5079 
     67 H67       -82.1009   24.8369  -70.8848 H         1 UNK         0.0900 
     68 H68       -83.2402   25.8162  -69.9552 H         1 UNK         0.0900 
     69 H69       -81.6495   26.4595  -70.3501 H         1 UNK         0.0900 
     70 H70       -81.3312   27.4511  -72.3929 H         1 UNK         0.2959 
     71 H71       -83.6791   28.2002  -73.9104 H         1 UNK         0.1079 
     72 H72       -82.0948   29.5365  -75.2919 H         1 UNK         0.0837 
     73 H73       -80.7355   28.7923  -74.4946 H         1 UNK         0.0837 
     74 H74       -80.1640   32.0727  -72.6886 H         1 UNK         0.0685 
     75 H75       -79.9197   31.2927  -74.2313 H         1 UNK         0.0685 
     76 H76       -80.2645   28.7788  -71.6144 H         1 UNK         0.1434 
     77 H77       -76.0647   28.3079  -70.9680 H         1 UNK         0.1329 
     78 H78       -77.5140   31.6171  -73.2761 H         1 UNK         0.1335 
     79 H79       -75.2858   31.6747  -72.0261 H         1 UNK         0.0680 
     80 H80       -74.5859   30.1898  -71.4564 H         1 UNK         0.0680 
     81 H81       -73.7829   28.3891  -72.6966 H         1 UNK         0.1032 
     82 H82       -73.7360   28.1694  -74.4177 H         1 UNK         0.1032 
     83 H83       -71.7527   29.8326  -72.8185 H         1 UNK         0.0461 
     84 H84       -69.7968   26.4913  -73.9179 H         1 UNK         0.3453 
     85 H85       -70.1423   27.7591  -75.0694 H         1 UNK         0.3453 
     86 H86       -72.0544   29.5525  -75.7127 H         1 UNK         0.2984 
     87 H87       -70.5367   31.9798  -76.5399 H         1 UNK         0.0554 
     88 H88       -68.2670   31.6537  -77.5616 H         1 UNK         0.0847 
     89 H89       -67.9259   30.3821  -76.3889 H         1 UNK         0.0847 
     90 H90       -68.1685   32.0375  -75.8529 H         1 UNK         0.0847 
     91 H91       -71.1695   30.5947  -78.1326 H         1 UNK         0.3141 
     92 H92       -71.5990   28.9125  -79.3586 H         1 UNK         0.0743 
     93 H93       -69.3166   28.3926  -80.2527 H         1 UNK         0.0784 
     94 H94       -69.3431   26.8352  -79.4385 H         1 UNK         0.0784 
     95 H95       -70.4893   27.1785  -80.7354 H         1 UNK         0.0784 
     96 H96       -71.6587   26.1777  -78.7336 H         1 UNK         0.3213 
     97 H97       -73.9897   25.5056  -77.9387 H         1 UNK         0.0855 
     98 H98       -72.1338   25.3942  -75.4852 H         1 UNK         0.0814 
     99 H99       -71.8099   24.6509  -77.0450 H         1 UNK         0.0814 
    100 H100      -73.1342   24.0617  -76.0599 H         1 UNK         0.0814 
    101 H101      -74.4336   26.1509  -75.1184 H         1 UNK         0.3105 
    102 H102      -76.1480   27.9569  -74.6371 H         1 UNK         0.0547 
    103 H103      -78.6020   28.1197  -74.7191 H         1 UNK         0.0837 
    104 H104      -77.8736   28.7406  -76.1902 H         1 UNK         0.0837 
    105 H105      -78.6458   27.1607  -76.2020 H         1 UNK         0.0837 
    106 H106      -77.8547   25.6115  -74.4263 H         1 UNK         0.3020 
    107 H107      -75.5739   23.9190  -72.2619 H         1 UNK         0.1245 
    108 H108      -76.4993   25.4030  -70.6217 H         1 UNK         0.0781 
    109 H109      -77.3764   23.9077  -70.6050 H         1 UNK         0.0781 
    110 H110      -77.7074   27.0143  -69.6477 H         1 UNK         0.0836 
    111 H111      -79.3958   27.3718  -69.7850 H         1 UNK         0.0836 
    112 H112      -78.0055   23.8046  -73.9382 H         1 UNK         0.3022 
    113 H113      -77.1515   20.4528  -74.6850 H         1 UNK         0.0747 
    114 H114      -79.5605   19.9159  -74.3635 H         1 UNK         0.0793 
    115 H115      -78.7509   20.0102  -72.8089 H         1 UNK         0.0793 
    116 H116      -79.7673   21.3415  -73.3436 H         1 UNK         0.0793 
    117 H117      -79.2588   22.1338  -75.6231 H         1 UNK         0.3047 
    118 H118      -77.5777   24.4760  -77.4251 H         1 UNK         0.0822 
    119 H119      -77.0036   22.7109  -79.1048 H         1 UNK         0.0807 
    120 H120      -78.4046   23.6390  -79.6058 H         1 UNK         0.0807 
    121 H121      -78.6108   22.0177  -78.9392 H         1 UNK         0.0807 
    122 H122      -80.1994   23.6707  -77.9064 H         1 UNK         0.2946 
    123 H123      -81.8135   25.1427  -77.0302 H         1 UNK         0.1144 
    124 H124      -82.1704   22.7349  -76.4027 H         1 UNK         0.0793 
    125 H125      -83.3868   23.7403  -75.6347 H         1 UNK         0.0793 
    126 H126      -82.0246   23.1366  -74.6952 H         1 UNK         0.0793 
    127 H127      -81.1428   25.7857  -74.2403 H         1 UNK         0.2896 
@<TRIPOS>BOND
     1    1    2 1    
     2    1   67 1    
     3    1   68 1    
     4    1   69 1    
     5    2    3 2    
     6    2    4 am   BACKBONE|DICT|INTERRES
     7    4    5 1    
     8    4   70 1    
     9    5    6 1    
    10    5   65 1    
    11    5   71 1    
    12    6    7 1    
    13    6   72 1    
    14    6   73 1    
    15    7    8 1    
    16    8    9 1    
    17    8   74 1    
    18    8   75 1    
    19    9   10 ar   
    20    9   14 ar   
    21   10   11 ar   
    22   10   76 1    
    23   11   12 ar   
    24   11   48 1    
    25   12   13 ar   
    26   12   77 1    
    27   13   14 ar   
    28   13   15 1    
    29   14   78 1    
    30   15   16 1    
    31   15   79 1    
    32   15   80 1    
    33   16   17 1    
    34   17   18 1    
    35   17   81 1    
    36   17   82 1    
    37   18   19 1    
    38   18   22 1    
    39   18   83 1    
    40   19   20 am   BACKBONE|DICT|INTERRES
    41   19   21 2    
    42   20   84 1    
    43   20   85 1    
    44   22   23 am   BACKBONE|DICT|INTERRES
    45   22   86 1    
    46   23   24 2    
    47   23   25 1    
    48   25   26 1    
    49   25   27 1    
    50   25   87 1    
    51   26   88 1    
    52   26   89 1    
    53   26   90 1    
    54   27   28 am   BACKBONE|DICT|INTERRES
    55   27   91 1    
    56   28   29 2    
    57   28   30 1    
    58   30   31 1    
    59   30   32 1    
    60   30   92 1    
    61   31   93 1    
    62   31   94 1    
    63   31   95 1    
    64   32   33 am   BACKBONE|DICT|INTERRES
    65   32   96 1    
    66   33   34 2    
    67   33   35 1    
    68   35   36 1    
    69   35   37 1    
    70   35   97 1    
    71   36   98 1    
    72   36   99 1    
    73   36  100 1    
    74   37   38 am   BACKBONE|DICT|INTERRES
    75   37  101 1    
    76   38   39 2    
    77   38   40 1    
    78   40   41 1    
    79   40   42 1    
    80   40  102 1    
    81   41  103 1    
    82   41  104 1    
    83   41  105 1    
    84   42   43 am   BACKBONE|DICT|INTERRES
    85   42  106 1    
    86   43   44 2    
    87   43   45 1    
    88   45   46 1    
    89   45   49 1    
    90   45  107 1    
    91   46   47 1    
    92   46  108 1    
    93   46  109 1    
    94   47   48 1    
    95   48  110 1    
    96   48  111 1    
    97   49   50 am   BACKBONE|DICT|INTERRES
    98   49  112 1    
    99   50   51 2    
   100   50   52 1    
   101   52   53 1    
   102   52   54 1    
   103   52  113 1    
   104   53  114 1    
   105   53  115 1    
   106   53  116 1    
   107   54   55 am   BACKBONE|DICT|INTERRES
   108   54  117 1    
   109   55   56 2    
   110   55   57 1    
   111   57   58 1    
   112   57   59 1    
   113   57  118 1    
   114   58  119 1    
   115   58  120 1    
   116   58  121 1    
   117   59   60 am   BACKBONE|DICT|INTERRES
   118   59  122 1    
   119   60   61 2    
   120   60   62 1    
   121   62   63 1    
   122   62   64 1    
   123   62  123 1    
   124   63  124 1    
   125   63  125 1    
   126   63  126 1    
   127   64   65 am   BACKBONE|DICT|INTERRES
   128   64  127 1    
   129   65   66 2    
@<TRIPOS>SUBSTRUCTURE
     1 UNK         1 GROUP             0       ****    0 ROOT    
