@<TRIPOS>MOLECULE
3R135
127   129    1
SMALL
USER_CHARGES


@<TRIPOS>ATOM
      1 CA        -86.0388   29.0848  -73.1510 C.3       0 UNK        -0.1998 
      2 C         -84.8365   29.5256  -73.9720 C.2       0 UNK         0.4909 
      3 O         -85.0050   30.0492  -75.0736 O.2       0 UNK        -0.5240 
      4 N         -83.6233   29.3197  -73.4434 N.am      1 UNK        -0.4739 
      5 CA        -82.3511   29.6457  -74.1014 C.3       1 UNK         0.0864 
      6 C6        -81.1699   29.7056  -73.0929 C.3       11 UNK        -0.0881 
      7 S7        -81.0457   28.2585  -71.9795 S.3       11 UNK        -0.2682 
      8 C8        -79.9245   27.1505  -72.8888 C.3       11 UNK         0.0289 
      9 C9        -78.4615   27.3670  -72.5370 C.ar      11 UNK        -0.0687 
     10 C10       -77.8571   26.5748  -71.5580 C.ar      11 UNK        -0.0823 
     11 C11       -76.4890   26.6905  -71.2937 C.ar      11 UNK        -0.0830 
     12 C12       -75.7308   27.6326  -71.9941 C.ar      11 UNK        -0.1021 
     13 C13       -76.3285   28.4476  -72.9604 C.ar      11 UNK        -0.0753 
     14 C14       -77.6936   28.3070  -73.2302 C.ar      11 UNK        -0.0933 
     15 C15       -75.4929   29.4278  -73.7695 C.3       11 UNK         0.0166 
     16 S16       -75.2168   30.9998  -72.8941 S.3       11 UNK        -0.2615 
     17 C17       -73.6035   30.7129  -72.0842 C.3       11 UNK        -0.0865 
     18 CA        -72.4090   31.2243  -72.9355 C.3       10 UNK         0.0862 
     19 C         -71.0773   31.1846  -72.1275 C.2       10 UNK         0.5551 
     20 N         -70.0375   30.4859  -72.5703 N.am      10 UNK        -0.7319 
     21 O         -70.9841   31.8113  -71.0750 O.2       10 UNK        -0.5018 
     22 N         -72.3432   30.5301  -74.2295 N.am      10 UNK        -0.4509 
     23 C         -71.8002   31.0143  -75.3513 C.2       10 UNK         0.4899 
     24 O         -71.3451   32.1542  -75.4571 O.2       10 UNK        -0.4839 
     25 CA        -71.7625   30.0471  -76.5541 C.3       9 UNK         0.0222 
     26 CB        -70.6751   30.4216  -77.5831 C.3       9 UNK        -0.1966 
     27 N         -71.6460   28.6303  -76.1721 N.am      9 UNK        -0.4218 
     28 C         -70.6597   28.0655  -75.4520 C.2       9 UNK         0.5020 
     29 O         -69.7184   28.7014  -74.9750 O.2       9 UNK        -0.5274 
     30 CA        -70.7405   26.5524  -75.1665 C.3       8 UNK         0.0270 
     31 CB        -71.0131   26.3102  -73.6718 C.3       8 UNK        -0.1976 
     32 N         -71.7557   25.8545  -75.9605 N.am      8 UNK        -0.4313 
     33 C         -71.6477   25.5907  -77.2729 C.2       8 UNK         0.5041 
     34 O         -70.6306   25.8225  -77.9275 O.2       8 UNK        -0.5577 
     35 CA        -72.8764   25.0001  -77.9963 C.3       7 UNK         0.0284 
     36 CB        -72.6772   23.4974  -78.2502 C.3       7 UNK        -0.1958 
     37 N         -74.1462   25.2019  -77.2920 N.am      7 UNK        -0.4454 
     38 C         -74.6844   26.3912  -76.9811 C.2       7 UNK         0.5089 
     39 O         -74.1993   27.4699  -77.3251 O.2       7 UNK        -0.5125 
     40 CA        -75.9185   26.3848  -76.0595 C.3       6 UNK         0.0408 
     41 CB        -77.2032   26.6293  -76.8635 C.3       6 UNK        -0.1791 
     42 N         -76.0559   25.1750  -75.2354 N.am      6 UNK        -0.4762 
     43 C         -75.1436   24.7576  -74.3377 C.2       6 UNK         0.5007 
     44 O         -74.0807   25.3511  -74.1505 O.2       6 UNK        -0.5032 
     45 CA        -75.4003   23.4257  -73.5877 C.3       5 UNK         0.0783 
     46 C46       -75.9122   23.6255  -72.1369 C.3       11 UNK        -0.0857 
     47 S47       -74.7566   24.5157  -71.0343 S.3       11 UNK        -0.2512 
     48 C48       -75.8284   25.7792  -70.2675 C.3       11 UNK         0.0225 
     49 N         -76.3042   22.5271  -74.3115 N.am      5 UNK        -0.4615 
     50 C         -76.0957   21.9904  -75.5217 C.2       4 UNK         0.5053 
     51 O         -75.0590   22.1394  -76.1678 O.2       4 UNK        -0.5105 
     52 CA        -77.2721   21.1996  -76.1306 C.3       4 UNK         0.0263 
     53 CB        -77.1144   19.6978  -75.8453 C.3       4 UNK        -0.1981 
     54 N         -78.5892   21.6540  -75.6560 N.am      4 UNK        -0.4224 
     55 C         -79.0752   22.8870  -75.8577 C.2       3 UNK         0.4895 
     56 O         -78.4879   23.7487  -76.5164 O.2       3 UNK        -0.5091 
     57 CA        -80.3824   23.2510  -75.1432 C.3       3 UNK         0.0250 
     58 CB        -80.1235   23.3916  -73.6274 C.3       3 UNK        -0.1996 
     59 N         -80.8537   24.5108  -75.7181 N.am      3 UNK        -0.4254 
     60 C         -82.0077   25.1388  -75.4739 C.2       2 UNK         0.5004 
     61 O         -82.8634   24.7410  -74.6803 O.2       2 UNK        -0.5226 
     62 CA        -82.2533   26.4379  -76.2498 C.3       2 UNK         0.0269 
     63 CB        -83.4203   26.2849  -77.2402 C.3       2 UNK        -0.1926 
     64 N         -82.5616   27.4931  -75.2888 N.am      2 UNK        -0.4687 
     65 C         -82.0248   28.7204  -75.2944 C.2       1 UNK         0.5165 
     66 O         -81.2724   29.1288  -76.1802 O.2       1 UNK        -0.5079 
     67 H67       -86.6179   28.3443  -73.7020 H         1 UNK         0.0900 
     68 H68       -85.7430   28.6443  -72.1990 H         1 UNK         0.0900 
     69 H69       -86.6845   29.9377  -72.9437 H         1 UNK         0.0900 
     70 H70       -83.5362   28.8884  -72.5331 H         1 UNK         0.2959 
     71 H71       -82.4578   30.6457  -74.5287 H         1 UNK         0.1079 
     72 H72       -80.2206   29.8692  -73.6045 H         1 UNK         0.0837 
     73 H73       -81.2999   30.5818  -72.4560 H         1 UNK         0.0837 
     74 H74       -80.2134   26.1274  -72.6503 H         1 UNK         0.0685 
     75 H75       -80.0588   27.2511  -73.9645 H         1 UNK         0.0685 
     76 H76       -78.4479   25.8422  -71.0251 H         1 UNK         0.1434 
     77 H77       -74.6695   27.7043  -71.8048 H         1 UNK         0.1329 
     78 H78       -78.1506   28.9099  -74.0020 H         1 UNK         0.1335 
     79 H79       -74.5451   28.9620  -74.0383 H         1 UNK         0.0680 
     80 H80       -75.9909   29.6497  -74.7147 H         1 UNK         0.0680 
     81 H81       -73.6340   31.2330  -71.1248 H         1 UNK         0.1032 
     82 H82       -73.4824   29.6567  -71.8434 H         1 UNK         0.1032 
     83 H83       -72.5899   32.2813  -73.1403 H         1 UNK         0.0461 
     84 H84       -70.0774   29.9726  -73.4440 H         1 UNK         0.3453 
     85 H85       -69.1870   30.4815  -72.0305 H         1 UNK         0.3453 
     86 H86       -72.6646   29.5754  -74.2365 H         1 UNK         0.2984 
     87 H87       -72.7304   30.1448  -77.0480 H         1 UNK         0.0554 
     88 H88       -70.8372   31.4249  -77.9788 H         1 UNK         0.0847 
     89 H89       -70.6790   29.7366  -78.4310 H         1 UNK         0.0847 
     90 H90       -69.6780   30.4035  -77.1419 H         1 UNK         0.0847 
     91 H91       -72.3954   28.0344  -76.5112 H         1 UNK         0.3141 
     92 H92       -69.7654   26.1243  -75.4079 H         1 UNK         0.0743 
     93 H93       -70.2207   26.7372  -73.0554 H         1 UNK         0.0784 
     94 H94       -71.9518   26.7648  -73.3524 H         1 UNK         0.0784 
     95 H95       -71.0625   25.2455  -73.4425 H         1 UNK         0.0784 
     96 H96       -72.6209   25.6240  -75.4780 H         1 UNK         0.3213 
     97 H97       -72.9543   25.5050  -78.9614 H         1 UNK         0.0855 
     98 H98       -72.6005   22.9384  -77.3165 H         1 UNK         0.0814 
     99 H99       -71.7630   23.3138  -78.8164 H         1 UNK         0.0814 
    100 H100      -73.5030   23.0772  -78.8247 H         1 UNK         0.0814 
    101 H101      -74.6040   24.3697  -76.9414 H         1 UNK         0.3105 
    102 H102      -75.7958   27.2193  -75.3729 H         1 UNK         0.0547 
    103 H103      -78.0789   26.6642  -76.2151 H         1 UNK         0.0837 
    104 H104      -77.1544   27.5823  -77.3919 H         1 UNK         0.0837 
    105 H105      -77.3640   25.8530  -77.6119 H         1 UNK         0.0837 
    106 H106      -76.8806   24.6102  -75.4030 H         1 UNK         0.3020 
    107 H107      -74.4332   22.9207  -73.5330 H         1 UNK         0.1245 
    108 H108      -76.0868   22.6512  -71.6775 H         1 UNK         0.0781 
    109 H109      -76.8846   24.1158  -72.1487 H         1 UNK         0.0781 
    110 H110      -75.2286   26.3829  -69.5850 H         1 UNK         0.0836 
    111 H111      -76.5788   25.2811  -69.6515 H         1 UNK         0.0836 
    112 H112      -77.1858   22.3322  -73.8623 H         1 UNK         0.3022 
    113 H113      -77.2378   21.3492  -77.2119 H         1 UNK         0.0747 
    114 H114      -77.8904   19.1154  -76.3426 H         1 UNK         0.0793 
    115 H115      -76.1537   19.3307  -76.2098 H         1 UNK         0.0793 
    116 H116      -77.1622   19.4807  -74.7775 H         1 UNK         0.0793 
    117 H117      -79.1274   20.9973  -75.1081 H         1 UNK         0.3047 
    118 H118      -81.1260   22.4745  -75.3326 H         1 UNK         0.0822 
    119 H119      -79.8238   22.4391  -73.1892 H         1 UNK         0.0807 
    120 H120      -81.0135   23.7150  -73.0882 H         1 UNK         0.0807 
    121 H121      -79.3269   24.1073  -73.4218 H         1 UNK         0.0807 
    122 H122      -80.2020   24.8901  -76.3961 H         1 UNK         0.2946 
    123 H123      -81.3501   26.6882  -76.8118 H         1 UNK         0.1144 
    124 H124      -83.5834   27.2044  -77.8026 H         1 UNK         0.0793 
    125 H125      -84.3523   26.0352  -76.7313 H         1 UNK         0.0793 
    126 H126      -83.2184   25.4929  -77.9625 H         1 UNK         0.0793 
    127 H127      -83.1363   27.2156  -74.5040 H         1 UNK         0.2896 
@<TRIPOS>BOND
     1    1    2 1    
     2    1   67 1    
     3    1   68 1    
     4    1   69 1    
     5    2    3 2    
     6    2    4 am   BACKBONE|DICT|INTERRES
     7    4    5 1    
     8    4   70 1    
     9    5    6 1    
    10    5   65 1    
    11    5   71 1    
    12    6    7 1    
    13    6   72 1    
    14    6   73 1    
    15    7    8 1    
    16    8    9 1    
    17    8   74 1    
    18    8   75 1    
    19    9   10 ar   
    20    9   14 ar   
    21   10   11 ar   
    22   10   76 1    
    23   11   12 ar   
    24   11   48 1    
    25   12   13 ar   
    26   12   77 1    
    27   13   14 ar   
    28   13   15 1    
    29   14   78 1    
    30   15   16 1    
    31   15   79 1    
    32   15   80 1    
    33   16   17 1    
    34   17   18 1    
    35   17   81 1    
    36   17   82 1    
    37   18   19 1    
    38   18   22 1    
    39   18   83 1    
    40   19   20 am   BACKBONE|DICT|INTERRES
    41   19   21 2    
    42   20   84 1    
    43   20   85 1    
    44   22   23 am   BACKBONE|DICT|INTERRES
    45   22   86 1    
    46   23   24 2    
    47   23   25 1    
    48   25   26 1    
    49   25   27 1    
    50   25   87 1    
    51   26   88 1    
    52   26   89 1    
    53   26   90 1    
    54   27   28 am   BACKBONE|DICT|INTERRES
    55   27   91 1    
    56   28   29 2    
    57   28   30 1    
    58   30   31 1    
    59   30   32 1    
    60   30   92 1    
    61   31   93 1    
    62   31   94 1    
    63   31   95 1    
    64   32   33 am   BACKBONE|DICT|INTERRES
    65   32   96 1    
    66   33   34 2    
    67   33   35 1    
    68   35   36 1    
    69   35   37 1    
    70   35   97 1    
    71   36   98 1    
    72   36   99 1    
    73   36  100 1    
    74   37   38 am   BACKBONE|DICT|INTERRES
    75   37  101 1    
    76   38   39 2    
    77   38   40 1    
    78   40   41 1    
    79   40   42 1    
    80   40  102 1    
    81   41  103 1    
    82   41  104 1    
    83   41  105 1    
    84   42   43 am   BACKBONE|DICT|INTERRES
    85   42  106 1    
    86   43   44 2    
    87   43   45 1    
    88   45   46 1    
    89   45   49 1    
    90   45  107 1    
    91   46   47 1    
    92   46  108 1    
    93   46  109 1    
    94   47   48 1    
    95   48  110 1    
    96   48  111 1    
    97   49   50 am   BACKBONE|DICT|INTERRES
    98   49  112 1    
    99   50   51 2    
   100   50   52 1    
   101   52   53 1    
   102   52   54 1    
   103   52  113 1    
   104   53  114 1    
   105   53  115 1    
   106   53  116 1    
   107   54   55 am   BACKBONE|DICT|INTERRES
   108   54  117 1    
   109   55   56 2    
   110   55   57 1    
   111   57   58 1    
   112   57   59 1    
   113   57  118 1    
   114   58  119 1    
   115   58  120 1    
   116   58  121 1    
   117   59   60 am   BACKBONE|DICT|INTERRES
   118   59  122 1    
   119   60   61 2    
   120   60   62 1    
   121   62   63 1    
   122   62   64 1    
   123   62  123 1    
   124   63  124 1    
   125   63  125 1    
   126   63  126 1    
   127   64   65 am   BACKBONE|DICT|INTERRES
   128   64  127 1    
   129   65   66 2    
@<TRIPOS>SUBSTRUCTURE
     1 UNK         1 GROUP             0       ****    0 ROOT    
