@<TRIPOS>MOLECULE
3R135
127   129    1
SMALL
USER_CHARGES


@<TRIPOS>ATOM
      1 CA        -79.2109   21.9027  -71.9851 C.3       0 UNK        -0.1998 
      2 C         -80.1343   23.0546  -72.3501 C.2       0 UNK         0.4909 
      3 O         -80.8886   22.9513  -73.3179 O.2       0 UNK        -0.5240 
      4 N         -80.0728   24.1591  -71.5941 N.am      1 UNK        -0.4739 
      5 CA        -80.8500   25.3818  -71.8244 C.3       1 UNK         0.0864 
      6 C6        -80.6558   26.3889  -70.6670 C.3       11 UNK        -0.0881 
      7 S7        -81.8740   27.7479  -70.7118 S.3       11 UNK        -0.2682 
      8 C8        -80.9337   29.1186  -69.9663 C.3       11 UNK         0.0289 
      9 C9        -79.7425   29.5431  -70.8152 C.ar      11 UNK        -0.0687 
     10 C10       -79.9421   30.1998  -72.0337 C.ar      11 UNK        -0.0823 
     11 C11       -78.8534   30.6052  -72.8134 C.ar      11 UNK        -0.0830 
     12 C12       -77.5556   30.3645  -72.3492 C.ar      11 UNK        -0.1021 
     13 C13       -77.3436   29.6933  -71.1425 C.ar      11 UNK        -0.0753 
     14 C14       -78.4394   29.2887  -70.3765 C.ar      11 UNK        -0.0933 
     15 C15       -75.9275   29.3963  -70.6818 C.3       11 UNK         0.0166 
     16 S16       -75.2585   27.9619  -71.5741 S.3       11 UNK        -0.2615 
     17 C17       -73.5160   27.9995  -71.0354 C.3       11 UNK        -0.0865 
     18 CA        -72.6516   29.0146  -71.8298 C.3       10 UNK         0.0862 
     19 C         -71.1736   28.9533  -71.3590 C.2       10 UNK         0.5551 
     20 N         -70.7608   29.8598  -70.4839 N.am      10 UNK        -0.7319 
     21 O         -70.4187   28.0615  -71.7408 O.2       10 UNK        -0.5018 
     22 N         -72.7926   28.8238  -73.2785 N.am      10 UNK        -0.4509 
     23 C         -72.3259   29.6467  -74.2258 C.2       10 UNK         0.4899 
     24 O         -71.7309   30.7002  -73.9931 O.2       10 UNK        -0.4839 
     25 CA        -72.6070   29.2176  -75.6782 C.3       9 UNK         0.0222 
     26 CB        -71.7827   29.9977  -76.7245 C.3       9 UNK        -0.1966 
     27 N         -72.4834   27.7660  -75.8603 N.am      9 UNK        -0.4218 
     28 C         -71.3714   27.0273  -75.7230 C.2       9 UNK         0.5020 
     29 O         -70.2464   27.4917  -75.5351 O.2       9 UNK        -0.5274 
     30 CA        -71.5417   25.5037  -75.7821 C.3       8 UNK         0.0270 
     31 CB        -71.7798   24.9406  -74.3694 C.3       8 UNK        -0.1976 
     32 N         -72.6444   25.0982  -76.6583 N.am      8 UNK        -0.4313 
     33 C         -72.4870   24.7109  -77.9297 C.2       8 UNK         0.5041 
     34 O         -71.4059   24.7173  -78.5208 O.2       8 UNK        -0.5577 
     35 CA        -73.7305   24.1799  -78.6563 C.3       7 UNK         0.0284 
     36 CB        -74.0762   22.7654  -78.1610 C.3       7 UNK        -0.1958 
     37 N         -74.9050   25.0471  -78.5358 N.am      7 UNK        -0.4454 
     38 C         -75.0943   26.1492  -79.2755 C.2       7 UNK         0.5089 
     39 O         -74.2429   26.6226  -80.0289 O.2       7 UNK        -0.5125 
     40 CA        -76.4830   26.8092  -79.2063 C.3       6 UNK         0.0408 
     41 CB        -77.5452   25.9275  -79.8837 C.3       6 UNK        -0.1791 
     42 N         -76.9012   27.1153  -77.8406 N.am      6 UNK        -0.4762 
     43 C         -76.3878   28.1027  -77.0936 C.2       6 UNK         0.5007 
     44 O         -75.5349   28.8912  -77.4997 O.2       6 UNK        -0.5032 
     45 CA        -76.8943   28.2041  -75.6376 C.3       5 UNK         0.0783 
     46 C46       -78.2327   28.9850  -75.5625 C.3       11 UNK        -0.0857 
     47 S47       -77.9678   30.7888  -75.4905 S.3       11 UNK        -0.2512 
     48 C48       -79.1006   31.3021  -74.1500 C.3       11 UNK         0.0225 
     49 N         -76.9957   26.8893  -74.9966 N.am      5 UNK        -0.4615 
     50 C         -75.9905   26.0137  -74.8598 C.2       4 UNK         0.5053 
     51 O         -74.8287   26.2431  -75.1958 O.2       4 UNK        -0.5105 
     52 CA        -76.3547   24.6199  -74.3271 C.3       4 UNK         0.0263 
     53 CB        -76.3995   24.6053  -72.7915 C.3       4 UNK        -0.1981 
     54 N         -77.6290   24.1513  -74.8777 N.am      4 UNK        -0.4224 
     55 C         -77.8038   23.7908  -76.1583 C.2       3 UNK         0.4895 
     56 O         -76.8951   23.7499  -76.9856 O.2       3 UNK        -0.5091 
     57 CA        -79.2375   23.4745  -76.6103 C.3       3 UNK         0.0250 
     58 CB        -79.5922   22.0079  -76.3210 C.3       3 UNK        -0.1996 
     59 N         -80.2205   24.3688  -75.9934 N.am      3 UNK        -0.4254 
     60 C         -80.3287   25.6714  -76.3010 C.2       2 UNK         0.5004 
     61 O         -79.6509   26.2220  -77.1682 O.2       2 UNK        -0.5226 
     62 CA        -81.3207   26.5185  -75.4824 C.3       2 UNK         0.0269 
     63 CB        -82.6914   26.5594  -76.1753 C.3       2 UNK        -0.1926 
     64 N         -81.4871   26.0653  -74.0982 N.am      2 UNK        -0.4687 
     65 C         -80.4978   25.9923  -73.1970 C.2       1 UNK         0.5165 
     66 O         -79.3356   26.3256  -73.4341 O.2       1 UNK        -0.5079 
     67 H67       -78.6200   22.1196  -71.0954 H         1 UNK         0.0900 
     68 H68       -78.5252   21.6961  -72.8063 H         1 UNK         0.0900 
     69 H69       -79.7940   21.0024  -71.7935 H         1 UNK         0.0900 
     70 H70       -79.4200   24.1952  -70.8244 H         1 UNK         0.2959 
     71 H71       -81.9012   25.0847  -71.8367 H         1 UNK         0.1079 
     72 H72       -80.7742   25.8829  -69.7075 H         1 UNK         0.0837 
     73 H73       -79.6384   26.7823  -70.6752 H         1 UNK         0.0837 
     74 H74       -80.6141   28.8275  -68.9644 H         1 UNK         0.0685 
     75 H75       -81.6007   29.9721  -69.8368 H         1 UNK         0.0685 
     76 H76       -80.9513   30.3870  -72.3748 H         1 UNK         0.1434 
     77 H77       -76.7039   30.6749  -72.9386 H         1 UNK         0.1329 
     78 H78       -78.2770   28.7708  -69.4412 H         1 UNK         0.1335 
     79 H79       -75.9004   29.2027  -69.6083 H         1 UNK         0.0680 
     80 H80       -75.2986   30.2696  -70.8587 H         1 UNK         0.0680 
     81 H81       -73.4805   28.2181  -69.9663 H         1 UNK         0.1032 
     82 H82       -73.1145   26.9903  -71.1485 H         1 UNK         0.1032 
     83 H83       -73.0300   30.0153  -71.6132 H         1 UNK         0.0461 
     84 H84       -69.8091   29.8236  -70.1535 H         1 UNK         0.3453 
     85 H85       -71.3755   30.5897  -70.1584 H         1 UNK         0.3453 
     86 H86       -73.2728   27.9832  -73.5636 H         1 UNK         0.2984 
     87 H87       -73.6554   29.4566  -75.8496 H         1 UNK         0.0554 
     88 H88       -71.9984   31.0653  -76.6715 H         1 UNK         0.0847 
     89 H89       -72.0196   29.6706  -77.7369 H         1 UNK         0.0847 
     90 H90       -70.7099   29.8774  -76.5729 H         1 UNK         0.0847 
     91 H91       -73.3625   27.2628  -75.9433 H         1 UNK         0.3141 
     92 H92       -70.6030   25.0827  -76.1494 H         1 UNK         0.0743 
     93 H93       -70.9578   25.2054  -73.7025 H         1 UNK         0.0784 
     94 H94       -72.6952   25.3273  -73.9210 H         1 UNK         0.0784 
     95 H95       -71.8476   23.8528  -74.3834 H         1 UNK         0.0784 
     96 H96       -73.5778   25.1402  -76.2617 H         1 UNK         0.3213 
     97 H97       -73.4780   24.0989  -79.7163 H         1 UNK         0.0855 
     98 H98       -74.3457   22.7589  -77.1042 H         1 UNK         0.0814 
     99 H99       -73.2287   22.0900  -78.2853 H         1 UNK         0.0814 
    100 H100      -74.9116   22.3433  -78.7199 H         1 UNK         0.0814 
    101 H101      -75.6654   24.7050  -77.9498 H         1 UNK         0.3105 
    102 H102      -76.4323   27.7482  -79.7619 H         1 UNK         0.0547 
    103 H103      -77.2630   25.6957  -80.9115 H         1 UNK         0.0837 
    104 H104      -77.6834   24.9805  -79.3613 H         1 UNK         0.0837 
    105 H105      -78.5118   26.4303  -79.9182 H         1 UNK         0.0837 
    106 H106      -77.6543   26.5552  -77.4535 H         1 UNK         0.3020 
    107 H107      -76.1372   28.7486  -75.0685 H         1 UNK         0.1245 
    108 H108      -78.7870   28.6831  -74.6736 H         1 UNK         0.0781 
    109 H109      -78.8890   28.7544  -76.4037 H         1 UNK         0.0781 
    110 H110      -79.0040   32.3785  -74.0040 H         1 UNK         0.0836 
    111 H111      -80.1239   31.1276  -74.4864 H         1 UNK         0.0836 
    112 H112      -77.9021   26.6419  -74.6078 H         1 UNK         0.3022 
    113 H113      -75.5723   23.9281  -74.6467 H         1 UNK         0.0747 
    114 H114      -75.4361   24.9034  -72.3758 H         1 UNK         0.0793 
    115 H115      -76.6209   23.6092  -72.4092 H         1 UNK         0.0793 
    116 H116      -77.1468   25.2937  -72.3960 H         1 UNK         0.0793 
    117 H117      -78.4420   24.2382  -74.2852 H         1 UNK         0.3047 
    118 H118      -79.2819   23.6213  -77.6919 H         1 UNK         0.0822 
    119 H119      -78.9120   21.3353  -76.8454 H         1 UNK         0.0807 
    120 H120      -80.6027   21.7702  -76.6538 H         1 UNK         0.0807 
    121 H121      -79.5243   21.7715  -75.2595 H         1 UNK         0.0807 
    122 H122      -80.7806   23.9890  -75.2381 H         1 UNK         0.2946 
    123 H123      -80.9253   27.5356  -75.4489 H         1 UNK         0.1144 
    124 H124      -83.3766   27.2337  -75.6611 H         1 UNK         0.0793 
    125 H125      -83.1547   25.5727  -76.2141 H         1 UNK         0.0793 
    126 H126      -82.5985   26.9167  -77.2020 H         1 UNK         0.0793 
    127 H127      -82.4101   25.7505  -73.8348 H         1 UNK         0.2896 
@<TRIPOS>BOND
     1    1    2 1    
     2    1   67 1    
     3    1   68 1    
     4    1   69 1    
     5    2    3 2    
     6    2    4 am   BACKBONE|DICT|INTERRES
     7    4    5 1    
     8    4   70 1    
     9    5    6 1    
    10    5   65 1    
    11    5   71 1    
    12    6    7 1    
    13    6   72 1    
    14    6   73 1    
    15    7    8 1    
    16    8    9 1    
    17    8   74 1    
    18    8   75 1    
    19    9   10 ar   
    20    9   14 ar   
    21   10   11 ar   
    22   10   76 1    
    23   11   12 ar   
    24   11   48 1    
    25   12   13 ar   
    26   12   77 1    
    27   13   14 ar   
    28   13   15 1    
    29   14   78 1    
    30   15   16 1    
    31   15   79 1    
    32   15   80 1    
    33   16   17 1    
    34   17   18 1    
    35   17   81 1    
    36   17   82 1    
    37   18   19 1    
    38   18   22 1    
    39   18   83 1    
    40   19   20 am   BACKBONE|DICT|INTERRES
    41   19   21 2    
    42   20   84 1    
    43   20   85 1    
    44   22   23 am   BACKBONE|DICT|INTERRES
    45   22   86 1    
    46   23   24 2    
    47   23   25 1    
    48   25   26 1    
    49   25   27 1    
    50   25   87 1    
    51   26   88 1    
    52   26   89 1    
    53   26   90 1    
    54   27   28 am   BACKBONE|DICT|INTERRES
    55   27   91 1    
    56   28   29 2    
    57   28   30 1    
    58   30   31 1    
    59   30   32 1    
    60   30   92 1    
    61   31   93 1    
    62   31   94 1    
    63   31   95 1    
    64   32   33 am   BACKBONE|DICT|INTERRES
    65   32   96 1    
    66   33   34 2    
    67   33   35 1    
    68   35   36 1    
    69   35   37 1    
    70   35   97 1    
    71   36   98 1    
    72   36   99 1    
    73   36  100 1    
    74   37   38 am   BACKBONE|DICT|INTERRES
    75   37  101 1    
    76   38   39 2    
    77   38   40 1    
    78   40   41 1    
    79   40   42 1    
    80   40  102 1    
    81   41  103 1    
    82   41  104 1    
    83   41  105 1    
    84   42   43 am   BACKBONE|DICT|INTERRES
    85   42  106 1    
    86   43   44 2    
    87   43   45 1    
    88   45   46 1    
    89   45   49 1    
    90   45  107 1    
    91   46   47 1    
    92   46  108 1    
    93   46  109 1    
    94   47   48 1    
    95   48  110 1    
    96   48  111 1    
    97   49   50 am   BACKBONE|DICT|INTERRES
    98   49  112 1    
    99   50   51 2    
   100   50   52 1    
   101   52   53 1    
   102   52   54 1    
   103   52  113 1    
   104   53  114 1    
   105   53  115 1    
   106   53  116 1    
   107   54   55 am   BACKBONE|DICT|INTERRES
   108   54  117 1    
   109   55   56 2    
   110   55   57 1    
   111   57   58 1    
   112   57   59 1    
   113   57  118 1    
   114   58  119 1    
   115   58  120 1    
   116   58  121 1    
   117   59   60 am   BACKBONE|DICT|INTERRES
   118   59  122 1    
   119   60   61 2    
   120   60   62 1    
   121   62   63 1    
   122   62   64 1    
   123   62  123 1    
   124   63  124 1    
   125   63  125 1    
   126   63  126 1    
   127   64   65 am   BACKBONE|DICT|INTERRES
   128   64  127 1    
   129   65   66 2    
@<TRIPOS>SUBSTRUCTURE
     1 UNK         1 GROUP             0       ****    0 ROOT    
