@<TRIPOS>MOLECULE
3R135
127   129    1
SMALL
USER_CHARGES


@<TRIPOS>ATOM
      1 CA        -84.8689   27.3914  -74.2042 C.3       0 UNK        -0.1998 
      2 C         -83.6513   27.6746  -73.3283 C.2       0 UNK         0.4909 
      3 O         -83.6446   27.2895  -72.1611 O.2       0 UNK        -0.5240 
      4 N         -82.6027   28.3427  -73.8299 N.am      1 UNK        -0.4739 
      5 CA        -82.4241   28.8258  -75.2074 C.3       1 UNK         0.0864 
      6 C6        -81.4046   29.9937  -75.2782 C.3       11 UNK        -0.0881 
      7 S7        -79.7506   29.5912  -74.6171 S.3       11 UNK        -0.2682 
      8 C8        -79.8487   30.2942  -72.9429 C.3       11 UNK         0.0289 
      9 C9        -78.7391   29.7510  -72.0570 C.ar      11 UNK        -0.0687 
     10 C10       -78.7747   28.4196  -71.6311 C.ar      11 UNK        -0.0823 
     11 C11       -77.7689   27.9095  -70.8061 C.ar      11 UNK        -0.0830 
     12 C12       -76.7281   28.7471  -70.3927 C.ar      11 UNK        -0.1021 
     13 C13       -76.6801   30.0797  -70.8146 C.ar      11 UNK        -0.0753 
     14 C14       -77.6867   30.5754  -71.6490 C.ar      11 UNK        -0.0933 
     15 C15       -75.5528   30.9936  -70.3570 C.3       11 UNK         0.0166 
     16 S16       -74.2322   31.1157  -71.6021 S.3       11 UNK        -0.2615 
     17 C17       -73.4291   29.4887  -71.4185 C.3       11 UNK        -0.0865 
     18 CA        -72.1866   29.3424  -72.3312 C.3       10 UNK         0.0862 
     19 C         -71.4191   28.0382  -72.0050 C.2       10 UNK         0.5551 
     20 N         -70.2114   28.1418  -71.4684 N.am      10 UNK        -0.7319 
     21 O         -71.9262   26.9350  -72.1971 O.2       10 UNK        -0.5018 
     22 N         -72.5719   29.3241  -73.7437 N.am      10 UNK        -0.4509 
     23 C         -72.0554   30.0883  -74.7096 C.2       10 UNK         0.4899 
     24 O         -71.2236   30.9781  -74.5201 O.2       10 UNK        -0.4839 
     25 CA        -72.5496   29.7721  -76.1343 C.3       9 UNK         0.0222 
     26 CB        -71.9194   30.6748  -77.2161 C.3       9 UNK        -0.1966 
     27 N         -72.3782   28.3525  -76.4658 N.am      9 UNK        -0.4218 
     28 C         -71.2320   27.6527  -76.4958 C.2       9 UNK         0.5020 
     29 O         -70.1178   28.1483  -76.3210 O.2       9 UNK        -0.5274 
     30 CA        -71.3269   26.1345  -76.7400 C.3       8 UNK         0.0270 
     31 CB        -70.9754   25.3700  -75.4525 C.3       8 UNK        -0.1976 
     32 N         -72.6413   25.6905  -77.2109 N.am      8 UNK        -0.4313 
     33 C         -73.1065   25.8552  -78.4562 C.2       8 UNK         0.5041 
     34 O         -72.4524   26.3564  -79.3714 O.2       8 UNK        -0.5577 
     35 CA        -74.5593   25.4175  -78.7154 C.3       7 UNK         0.0284 
     36 CB        -74.6391   23.9025  -78.9608 C.3       7 UNK        -0.1958 
     37 N         -75.4767   25.7911  -77.6339 N.am      7 UNK        -0.4454 
     38 C         -75.7495   27.0516  -77.2628 C.2       7 UNK         0.5089 
     39 O         -75.2548   28.0479  -77.7886 O.2       7 UNK        -0.5125 
     40 CA        -76.7095   27.2260  -76.0783 C.3       6 UNK         0.0408 
     41 CB        -78.1613   27.0250  -76.5303 C.3       6 UNK        -0.1791 
     42 N         -76.3849   26.2994  -74.9931 N.am      6 UNK        -0.4762 
     43 C         -75.3125   26.4338  -74.1983 C.2       6 UNK         0.5007 
     44 O         -74.5420   27.3916  -74.2610 O.2       6 UNK        -0.5032 
     45 CA        -75.0029   25.2843  -73.2160 C.3       5 UNK         0.0783 
     46 C46       -75.5848   25.5306  -71.8029 C.3       11 UNK        -0.0857 
     47 S47       -77.3940   25.3029  -71.6900 S.3       11 UNK        -0.2512 
     48 C48       -77.8251   26.4585  -70.3502 C.3       11 UNK         0.0225 
     49 N         -75.3711   23.9690  -73.7495 N.am      5 UNK        -0.4615 
     50 C         -74.7674   23.3868  -74.7921 C.2       4 UNK         0.5053 
     51 O         -73.8298   23.8923  -75.4052 O.2       4 UNK        -0.5105 
     52 CA        -75.3156   22.0293  -75.2553 C.3       4 UNK         0.0263 
     53 CB        -74.6746   20.8895  -74.4479 C.3       4 UNK        -0.1981 
     54 N         -76.7755   21.9105  -75.1973 N.am      4 UNK        -0.4224 
     55 C         -77.6509   22.7042  -75.8309 C.2       3 UNK         0.4895 
     56 O         -77.3231   23.7014  -76.4802 O.2       3 UNK        -0.5091 
     57 CA        -79.1258   22.2604  -75.7719 C.3       3 UNK         0.0250 
     58 CB        -79.5512   21.7323  -74.3812 C.3       3 UNK        -0.1996 
     59 N         -80.0543   23.2832  -76.2713 N.am      3 UNK        -0.4254 
     60 C         -80.4231   24.4227  -75.6693 C.2       2 UNK         0.5004 
     61 O         -80.0436   24.7785  -74.5505 O.2       2 UNK        -0.5226 
     62 CA        -81.4039   25.3069  -76.4560 C.3       2 UNK         0.0269 
     63 CB        -82.7347   24.5761  -76.7318 C.3       2 UNK        -0.1926 
     64 N         -81.6709   26.5279  -75.7001 N.am      2 UNK        -0.4687 
     65 C         -82.0947   27.6922  -76.2070 C.2       1 UNK         0.5165 
     66 O         -82.2706   27.8826  -77.4110 O.2       1 UNK        -0.5079 
     67 H67       -84.6104   26.7414  -75.0392 H         1 UNK         0.0900 
     68 H68       -85.6441   26.8894  -73.6255 H         1 UNK         0.0900 
     69 H69       -85.2971   28.3150  -74.5919 H         1 UNK         0.0900 
     70 H70       -81.8098   28.5042  -73.2272 H         1 UNK         0.2959 
     71 H71       -83.3777   29.2386  -75.5413 H         1 UNK         0.1079 
     72 H72       -81.8002   30.8568  -74.7403 H         1 UNK         0.0837 
     73 H73       -81.2854   30.3314  -76.3097 H         1 UNK         0.0837 
     74 H74       -80.8117   30.0584  -72.4894 H         1 UNK         0.0685 
     75 H75       -79.7981   31.3821  -73.0101 H         1 UNK         0.0685 
     76 H76       -79.5814   27.7742  -71.9512 H         1 UNK         0.1434 
     77 H77       -75.9527   28.3621  -69.7445 H         1 UNK         0.1329 
     78 H78       -77.6504   31.6057  -71.9761 H         1 UNK         0.1335 
     79 H79       -75.9486   31.9927  -70.1679 H         1 UNK         0.0680 
     80 H80       -75.1356   30.6495  -69.4093 H         1 UNK         0.0680 
     81 H81       -74.1566   28.7068  -71.6427 H         1 UNK         0.1032 
     82 H82       -73.1507   29.3643  -70.3701 H         1 UNK         0.1032 
     83 H83       -71.5253   30.1891  -72.1355 H         1 UNK         0.0461 
     84 H84       -69.7906   29.0425  -71.3002 H         1 UNK         0.3453 
     85 H85       -69.7059   27.3013  -71.2366 H         1 UNK         0.3453 
     86 H86       -73.2383   28.5943  -73.9950 H         1 UNK         0.2984 
     87 H87       -73.6250   29.9572  -76.1367 H         1 UNK         0.0554 
     88 H88       -72.1358   31.7255  -77.0195 H         1 UNK         0.0847 
     89 H89       -72.3150   30.4417  -78.2047 H         1 UNK         0.0847 
     90 H90       -70.8349   30.5694  -77.2551 H         1 UNK         0.0847 
     91 H91       -73.2383   27.8456  -76.6306 H         1 UNK         0.3141 
     92 H92       -70.5855   25.8803  -77.5004 H         1 UNK         0.0743 
     93 H93       -69.9837   25.6436  -75.0896 H         1 UNK         0.0784 
     94 H94       -71.6852   25.5858  -74.6526 H         1 UNK         0.0784 
     95 H95       -70.9744   24.2924  -75.6174 H         1 UNK         0.0784 
     96 H96       -73.2158   25.1846  -76.5371 H         1 UNK         0.3213 
     97 H97       -74.8994   25.9260  -79.6201 H         1 UNK         0.0855 
     98 H98       -74.2918   23.3347  -78.0980 H         1 UNK         0.0814 
     99 H99       -74.0192   23.6135  -79.8105 H         1 UNK         0.0814 
    100 H100      -75.6595   23.5877  -79.1808 H         1 UNK         0.0814 
    101 H101      -75.9596   25.0366  -77.1541 H         1 UNK         0.3105 
    102 H102      -76.6133   28.2456  -75.6982 H         1 UNK         0.0547 
    103 H103      -78.3027   26.0777  -77.0498 H         1 UNK         0.0837 
    104 H104      -78.4695   27.8186  -77.2119 H         1 UNK         0.0837 
    105 H105      -78.8404   27.0446  -75.6797 H         1 UNK         0.0837 
    106 H106      -76.9547   25.4672  -74.9122 H         1 UNK         0.3020 
    107 H107      -73.9151   25.2835  -73.1090 H         1 UNK         0.1245 
    108 H108      -75.3104   26.5268  -71.4546 H         1 UNK         0.0781 
    109 H109      -75.1223   24.8393  -71.0969 H         1 UNK         0.0781 
    110 H110      -77.1661   26.2893  -69.4971 H         1 UNK         0.0836 
    111 H111      -78.8342   26.2313  -70.0032 H         1 UNK         0.0836 
    112 H112      -76.1535   23.5081  -73.3081 H         1 UNK         0.3022 
    113 H113      -75.0266   21.9041  -76.3003 H         1 UNK         0.0747 
    114 H114      -74.9616   19.9137  -74.8401 H         1 UNK         0.0793 
    115 H115      -73.5857   20.9452  -74.4916 H         1 UNK         0.0793 
    116 H116      -74.9607   20.9274  -73.3960 H         1 UNK         0.0793 
    117 H117      -77.1374   21.1145  -74.6924 H         1 UNK         0.3047 
    118 H118      -79.2112   21.4295  -76.4739 H         1 UNK         0.0822 
    119 H119      -80.6218   21.5299  -74.3463 H         1 UNK         0.0807 
    120 H120      -79.3224   22.4440  -73.5868 H         1 UNK         0.0807 
    121 H121      -79.0477   20.7970  -74.1358 H         1 UNK         0.0807 
    122 H122      -80.4040   23.1128  -77.2037 H         1 UNK         0.2946 
    123 H123      -80.9265   25.5711  -77.4025 H         1 UNK         0.1144 
    124 H124      -83.4295   25.2082  -77.2851 H         1 UNK         0.0793 
    125 H125      -83.2248   24.2751  -75.8049 H         1 UNK         0.0793 
    126 H126      -82.5834   23.6765  -77.3290 H         1 UNK         0.0793 
    127 H127      -81.4704   26.4589  -74.7096 H         1 UNK         0.2896 
@<TRIPOS>BOND
     1    1    2 1    
     2    1   67 1    
     3    1   68 1    
     4    1   69 1    
     5    2    3 2    
     6    2    4 am   BACKBONE|DICT|INTERRES
     7    4    5 1    
     8    4   70 1    
     9    5    6 1    
    10    5   65 1    
    11    5   71 1    
    12    6    7 1    
    13    6   72 1    
    14    6   73 1    
    15    7    8 1    
    16    8    9 1    
    17    8   74 1    
    18    8   75 1    
    19    9   10 ar   
    20    9   14 ar   
    21   10   11 ar   
    22   10   76 1    
    23   11   12 ar   
    24   11   48 1    
    25   12   13 ar   
    26   12   77 1    
    27   13   14 ar   
    28   13   15 1    
    29   14   78 1    
    30   15   16 1    
    31   15   79 1    
    32   15   80 1    
    33   16   17 1    
    34   17   18 1    
    35   17   81 1    
    36   17   82 1    
    37   18   19 1    
    38   18   22 1    
    39   18   83 1    
    40   19   20 am   BACKBONE|DICT|INTERRES
    41   19   21 2    
    42   20   84 1    
    43   20   85 1    
    44   22   23 am   BACKBONE|DICT|INTERRES
    45   22   86 1    
    46   23   24 2    
    47   23   25 1    
    48   25   26 1    
    49   25   27 1    
    50   25   87 1    
    51   26   88 1    
    52   26   89 1    
    53   26   90 1    
    54   27   28 am   BACKBONE|DICT|INTERRES
    55   27   91 1    
    56   28   29 2    
    57   28   30 1    
    58   30   31 1    
    59   30   32 1    
    60   30   92 1    
    61   31   93 1    
    62   31   94 1    
    63   31   95 1    
    64   32   33 am   BACKBONE|DICT|INTERRES
    65   32   96 1    
    66   33   34 2    
    67   33   35 1    
    68   35   36 1    
    69   35   37 1    
    70   35   97 1    
    71   36   98 1    
    72   36   99 1    
    73   36  100 1    
    74   37   38 am   BACKBONE|DICT|INTERRES
    75   37  101 1    
    76   38   39 2    
    77   38   40 1    
    78   40   41 1    
    79   40   42 1    
    80   40  102 1    
    81   41  103 1    
    82   41  104 1    
    83   41  105 1    
    84   42   43 am   BACKBONE|DICT|INTERRES
    85   42  106 1    
    86   43   44 2    
    87   43   45 1    
    88   45   46 1    
    89   45   49 1    
    90   45  107 1    
    91   46   47 1    
    92   46  108 1    
    93   46  109 1    
    94   47   48 1    
    95   48  110 1    
    96   48  111 1    
    97   49   50 am   BACKBONE|DICT|INTERRES
    98   49  112 1    
    99   50   51 2    
   100   50   52 1    
   101   52   53 1    
   102   52   54 1    
   103   52  113 1    
   104   53  114 1    
   105   53  115 1    
   106   53  116 1    
   107   54   55 am   BACKBONE|DICT|INTERRES
   108   54  117 1    
   109   55   56 2    
   110   55   57 1    
   111   57   58 1    
   112   57   59 1    
   113   57  118 1    
   114   58  119 1    
   115   58  120 1    
   116   58  121 1    
   117   59   60 am   BACKBONE|DICT|INTERRES
   118   59  122 1    
   119   60   61 2    
   120   60   62 1    
   121   62   63 1    
   122   62   64 1    
   123   62  123 1    
   124   63  124 1    
   125   63  125 1    
   126   63  126 1    
   127   64   65 am   BACKBONE|DICT|INTERRES
   128   64  127 1    
   129   65   66 2    
@<TRIPOS>SUBSTRUCTURE
     1 UNK         1 GROUP             0       ****    0 ROOT    
