@<TRIPOS>MOLECULE
3R135
127   129    1
SMALL
USER_CHARGES


@<TRIPOS>ATOM
      1 CA        -82.3192   27.9477  -70.2473 C.3       0 UNK        -0.1998 
      2 C         -83.0033   27.6060  -71.5625 C.2       0 UNK         0.4909 
      3 O         -84.0870   27.0218  -71.5577 O.2       0 UNK        -0.5240 
      4 N         -82.3759   27.9640  -72.6902 N.am      1 UNK        -0.4739 
      5 CA        -82.8641   27.6940  -74.0495 C.3       1 UNK         0.0864 
      6 C6        -82.2584   28.6857  -75.0786 C.3       11 UNK        -0.0881 
      7 S7        -80.4408   28.5816  -75.2280 S.3       11 UNK        -0.2682 
      8 C8        -79.8898   29.9883  -74.2166 C.3       11 UNK         0.0289 
      9 C9        -78.4979   29.7182  -73.6719 C.ar      11 UNK        -0.0687 
     10 C10       -78.3406   28.9111  -72.5432 C.ar      11 UNK        -0.0823 
     11 C11       -77.0677   28.6114  -72.0533 C.ar      11 UNK        -0.0830 
     12 C12       -75.9418   29.1312  -72.7017 C.ar      11 UNK        -0.1021 
     13 C13       -76.0868   29.9445  -73.8317 C.ar      11 UNK        -0.0753 
     14 C14       -77.3688   30.2423  -74.3059 C.ar      11 UNK        -0.0933 
     15 C15       -74.8673   30.4545  -74.5845 C.3       11 UNK         0.0166 
     16 S16       -74.1313   31.9370  -73.8313 S.3       11 UNK        -0.2615 
     17 C17       -72.8049   31.2160  -72.8087 C.3       11 UNK        -0.0865 
     18 CA        -71.6050   30.6834  -73.6648 C.3       10 UNK         0.0862 
     19 C         -70.2259   31.3030  -73.2772 C.2       10 UNK         0.5551 
     20 N         -69.1252   30.5644  -73.3516 N.am      10 UNK        -0.7319 
     21 O         -70.1414   32.4823  -72.9423 O.2       10 UNK        -0.5018 
     22 N         -71.6163   29.2135  -73.7895 N.am      10 UNK        -0.4509 
     23 C         -71.4792   28.3408  -72.7795 C.2       10 UNK         0.4899 
     24 O         -71.2749   28.6823  -71.6141 O.2       10 UNK        -0.4839 
     25 CA        -71.6116   26.8392  -73.0913 C.3       9 UNK         0.0222 
     26 CB        -72.6726   26.1945  -72.1898 C.3       9 UNK        -0.1966 
     27 N         -71.9668   26.5740  -74.4873 N.am      9 UNK        -0.4218 
     28 C         -71.0814   26.2555  -75.4396 C.2       9 UNK         0.5020 
     29 O         -69.8694   26.1506  -75.2443 O.2       9 UNK        -0.5274 
     30 CA        -71.6293   26.0200  -76.8564 C.3       8 UNK         0.0270 
     31 CB        -72.1165   24.5692  -77.0048 C.3       8 UNK        -0.1976 
     32 N         -72.7047   26.9270  -77.2641 N.am      8 UNK        -0.4313 
     33 C         -72.6802   28.2649  -77.2640 C.2       8 UNK         0.5041 
     34 O         -71.7589   28.9354  -76.7975 O.2       8 UNK        -0.5577 
     35 CA        -73.8931   28.9854  -77.8824 C.3       7 UNK         0.0284 
     36 CB        -73.8459   28.9341  -79.4220 C.3       7 UNK        -0.1958 
     37 N         -75.1927   28.5337  -77.3647 N.am      7 UNK        -0.4454 
     38 C         -75.7726   27.3311  -77.4680 C.2       7 UNK         0.5089 
     39 O         -75.3086   26.3843  -78.1077 O.2       7 UNK        -0.5125 
     40 CA        -77.0799   27.1559  -76.6797 C.3       6 UNK         0.0408 
     41 CB        -78.2186   26.7445  -77.6270 C.3       6 UNK        -0.1791 
     42 N         -76.9877   26.1780  -75.5913 N.am      6 UNK        -0.4762 
     43 C         -75.9939   26.0100  -74.7003 C.2       6 UNK         0.5007 
     44 O         -74.9337   26.6408  -74.6966 O.2       6 UNK        -0.5032 
     45 CA        -76.2176   24.9072  -73.6484 C.3       5 UNK         0.0783 
     46 C46       -77.1018   25.3847  -72.4637 C.3       11 UNK        -0.0857 
     47 S47       -76.1038   26.1428  -71.1378 S.3       11 UNK        -0.2512 
     48 C48       -76.9278   27.7351  -70.8154 C.3       11 UNK         0.0225 
     49 N         -76.7759   23.7119  -74.2834 N.am      5 UNK        -0.4615 
     50 C         -76.0467   22.7114  -74.7956 C.2       4 UNK         0.5053 
     51 O         -74.8172   22.6700  -74.7517 O.2       4 UNK        -0.5105 
     52 CA        -76.8082   21.5435  -75.4504 C.3       4 UNK         0.0263 
     53 CB        -76.9733   20.3872  -74.4508 C.3       4 UNK        -0.1981 
     54 N         -78.1264   21.9287  -75.9587 N.am      4 UNK        -0.4224 
     55 C         -78.3291   22.6496  -77.0702 C.2       3 UNK         0.4895 
     56 O         -77.4304   22.9883  -77.8394 O.2       3 UNK        -0.5091 
     57 CA        -79.7774   23.0786  -77.3729 C.3       3 UNK         0.0250 
     58 CB        -80.4264   22.1040  -78.3691 C.3       3 UNK        -0.1996 
     59 N         -80.6430   23.2112  -76.1930 N.am      3 UNK        -0.4254 
     60 C         -80.4302   24.0495  -75.1694 C.2       2 UNK         0.5004 
     61 O         -79.4197   24.7457  -75.0490 O.2       2 UNK        -0.5226 
     62 CA        -81.4916   24.0773  -74.0624 C.3       2 UNK         0.0269 
     63 CB        -80.9597   23.3927  -72.7926 C.3       2 UNK        -0.1926 
     64 N         -81.8519   25.4581  -73.7477 N.am      2 UNK        -0.4687 
     65 C         -82.6782   26.2189  -74.4808 C.2       1 UNK         0.5165 
     66 O         -83.2905   25.7973  -75.4638 O.2       1 UNK        -0.5079 
     67 H67       -82.0899   27.0361  -69.6961 H         1 UNK         0.0900 
     68 H68       -82.9764   28.5615  -69.6318 H         1 UNK         0.0900 
     69 H69       -81.3897   28.4959  -70.3992 H         1 UNK         0.0900 
     70 H70       -81.4877   28.4390  -72.6407 H         1 UNK         0.2959 
     71 H71       -83.9436   27.8622  -74.0465 H         1 UNK         0.1079 
     72 H72       -82.6881   28.5096  -76.0667 H         1 UNK         0.0837 
     73 H73       -82.5426   29.7073  -74.8212 H         1 UNK         0.0837 
     74 H74       -79.9034   30.8963  -74.8215 H         1 UNK         0.0685 
     75 H75       -80.5788   30.1581  -73.3885 H         1 UNK         0.0685 
     76 H76       -79.2129   28.5023  -72.0540 H         1 UNK         0.1434 
     77 H77       -74.9549   28.8816  -72.3393 H         1 UNK         0.1329 
     78 H78       -77.4896   30.8605  -75.1848 H         1 UNK         0.1335 
     79 H79       -74.1312   29.6562  -74.6767 H         1 UNK         0.0680 
     80 H80       -75.1493   30.7220  -75.6024 H         1 UNK         0.0680 
     81 H81       -73.2336   30.4414  -72.1739 H         1 UNK         0.1032 
     82 H82       -72.4932   31.9933  -72.1093 H         1 UNK         0.1032 
     83 H83       -71.7389   31.0318  -74.6895 H         1 UNK         0.0461 
     84 H84       -68.2356   30.9739  -73.1137 H         1 UNK         0.3453 
     85 H85       -69.1795   29.6011  -73.6416 H         1 UNK         0.3453 
     86 H86       -71.7124   28.8626  -74.7370 H         1 UNK         0.2984 
     87 H87       -70.6519   26.3761  -72.8538 H         1 UNK         0.0554 
     88 H88       -72.7925   25.1326  -72.4043 H         1 UNK         0.0847 
     89 H89       -73.6364   26.6801  -72.3285 H         1 UNK         0.0847 
     90 H90       -72.4094   26.2858  -71.1352 H         1 UNK         0.0847 
     91 H91       -72.9536   26.6435  -74.7276 H         1 UNK         0.3141 
     92 H92       -70.8030   26.1759  -77.5525 H         1 UNK         0.0743 
     93 H93       -72.9811   24.3683  -76.3697 H         1 UNK         0.0784 
     94 H94       -72.3998   24.3483  -78.0340 H         1 UNK         0.0784 
     95 H95       -71.3344   23.8616  -76.7256 H         1 UNK         0.0784 
     96 H96       -73.5534   26.4965  -77.6289 H         1 UNK         0.3213 
     97 H97       -73.8073   30.0346  -77.5948 H         1 UNK         0.0855 
     98 H98       -72.9102   29.3527  -79.7950 H         1 UNK         0.0814 
     99 H99       -74.6574   29.5135  -79.8622 H         1 UNK         0.0814 
    100 H100      -73.9175   27.9153  -79.8035 H         1 UNK         0.0814 
    101 H101      -75.6707   29.2081  -76.7857 H         1 UNK         0.3105 
    102 H102      -77.3518   28.1077  -76.2217 H         1 UNK         0.0547 
    103 H103      -78.3691   27.4935  -78.4052 H         1 UNK         0.0837 
    104 H104      -78.0022   25.7975  -78.1225 H         1 UNK         0.0837 
    105 H105      -79.1638   26.6345  -77.0961 H         1 UNK         0.0837 
    106 H106      -77.8196   25.6069  -75.4628 H         1 UNK         0.3020 
    107 H107      -75.2329   24.6462  -73.2532 H         1 UNK         0.1245 
    108 H108      -77.6072   24.5322  -72.0076 H         1 UNK         0.0781 
    109 H109      -77.9006   26.0515  -72.7931 H         1 UNK         0.0781 
    110 H110      -76.3544   28.2780  -70.0628 H         1 UNK         0.0836 
    111 H111      -77.9022   27.5363  -70.3662 H         1 UNK         0.0836 
    112 H112      -77.7785   23.7167  -74.4288 H         1 UNK         0.3022 
    113 H113      -76.2051   21.1865  -76.2883 H         1 UNK         0.0747 
    114 H114      -77.4485   19.5238  -74.9170 H         1 UNK         0.0793 
    115 H115      -76.0042   20.0567  -74.0739 H         1 UNK         0.0793 
    116 H116      -77.5752   20.6792  -73.5892 H         1 UNK         0.0793 
    117 H117      -78.9274   21.6737  -75.3999 H         1 UNK         0.3047 
    118 H118      -79.7271   24.0612  -77.8457 H         1 UNK         0.0822 
    119 H119      -81.4114   22.4514  -78.6817 H         1 UNK         0.0807 
    120 H120      -80.5401   21.1063  -77.9430 H         1 UNK         0.0807 
    121 H121      -79.8201   22.0056  -79.2709 H         1 UNK         0.0807 
    122 H122      -81.4915   22.6631  -76.2012 H         1 UNK         0.2946 
    123 H123      -82.3850   23.5455  -74.3984 H         1 UNK         0.1144 
    124 H124      -80.6943   22.3532  -72.9894 H         1 UNK         0.0793 
    125 H125      -81.7097   23.3899  -72.0014 H         1 UNK         0.0793 
    126 H126      -80.0688   23.8898  -72.4064 H         1 UNK         0.0793 
    127 H127      -81.3577   25.8959  -72.9852 H         1 UNK         0.2896 
@<TRIPOS>BOND
     1    1    2 1    
     2    1   67 1    
     3    1   68 1    
     4    1   69 1    
     5    2    3 2    
     6    2    4 am   BACKBONE|DICT|INTERRES
     7    4    5 1    
     8    4   70 1    
     9    5    6 1    
    10    5   65 1    
    11    5   71 1    
    12    6    7 1    
    13    6   72 1    
    14    6   73 1    
    15    7    8 1    
    16    8    9 1    
    17    8   74 1    
    18    8   75 1    
    19    9   10 ar   
    20    9   14 ar   
    21   10   11 ar   
    22   10   76 1    
    23   11   12 ar   
    24   11   48 1    
    25   12   13 ar   
    26   12   77 1    
    27   13   14 ar   
    28   13   15 1    
    29   14   78 1    
    30   15   16 1    
    31   15   79 1    
    32   15   80 1    
    33   16   17 1    
    34   17   18 1    
    35   17   81 1    
    36   17   82 1    
    37   18   19 1    
    38   18   22 1    
    39   18   83 1    
    40   19   20 am   BACKBONE|DICT|INTERRES
    41   19   21 2    
    42   20   84 1    
    43   20   85 1    
    44   22   23 am   BACKBONE|DICT|INTERRES
    45   22   86 1    
    46   23   24 2    
    47   23   25 1    
    48   25   26 1    
    49   25   27 1    
    50   25   87 1    
    51   26   88 1    
    52   26   89 1    
    53   26   90 1    
    54   27   28 am   BACKBONE|DICT|INTERRES
    55   27   91 1    
    56   28   29 2    
    57   28   30 1    
    58   30   31 1    
    59   30   32 1    
    60   30   92 1    
    61   31   93 1    
    62   31   94 1    
    63   31   95 1    
    64   32   33 am   BACKBONE|DICT|INTERRES
    65   32   96 1    
    66   33   34 2    
    67   33   35 1    
    68   35   36 1    
    69   35   37 1    
    70   35   97 1    
    71   36   98 1    
    72   36   99 1    
    73   36  100 1    
    74   37   38 am   BACKBONE|DICT|INTERRES
    75   37  101 1    
    76   38   39 2    
    77   38   40 1    
    78   40   41 1    
    79   40   42 1    
    80   40  102 1    
    81   41  103 1    
    82   41  104 1    
    83   41  105 1    
    84   42   43 am   BACKBONE|DICT|INTERRES
    85   42  106 1    
    86   43   44 2    
    87   43   45 1    
    88   45   46 1    
    89   45   49 1    
    90   45  107 1    
    91   46   47 1    
    92   46  108 1    
    93   46  109 1    
    94   47   48 1    
    95   48  110 1    
    96   48  111 1    
    97   49   50 am   BACKBONE|DICT|INTERRES
    98   49  112 1    
    99   50   51 2    
   100   50   52 1    
   101   52   53 1    
   102   52   54 1    
   103   52  113 1    
   104   53  114 1    
   105   53  115 1    
   106   53  116 1    
   107   54   55 am   BACKBONE|DICT|INTERRES
   108   54  117 1    
   109   55   56 2    
   110   55   57 1    
   111   57   58 1    
   112   57   59 1    
   113   57  118 1    
   114   58  119 1    
   115   58  120 1    
   116   58  121 1    
   117   59   60 am   BACKBONE|DICT|INTERRES
   118   59  122 1    
   119   60   61 2    
   120   60   62 1    
   121   62   63 1    
   122   62   64 1    
   123   62  123 1    
   124   63  124 1    
   125   63  125 1    
   126   63  126 1    
   127   64   65 am   BACKBONE|DICT|INTERRES
   128   64  127 1    
   129   65   66 2    
@<TRIPOS>SUBSTRUCTURE
     1 UNK         1 GROUP             0       ****    0 ROOT    
