@<TRIPOS>MOLECULE
3R135
127   129    1
SMALL
USER_CHARGES


@<TRIPOS>ATOM
      1 CA        -84.4767   26.0219  -72.2646 C.3       0 UNK        -0.1998 
      2 C         -83.6054   26.9746  -73.0699 C.2       0 UNK         0.4909 
      3 O         -84.1310   27.8088  -73.8084 O.2       0 UNK        -0.5240 
      4 N         -82.2788   26.8612  -72.9253 N.am      1 UNK        -0.4739 
      5 CA        -81.2870   27.6310  -73.6852 C.3       1 UNK         0.0864 
      6 C6        -79.9233   27.6818  -72.9441 C.3       11 UNK        -0.0881 
      7 S7        -79.0507   29.2632  -73.2299 S.3       11 UNK        -0.2682 
      8 C8        -78.5965   29.7750  -71.5404 C.3       11 UNK         0.0289 
      9 C9        -77.2431   29.2163  -71.1185 C.ar      11 UNK        -0.0687 
     10 C10       -77.0649   27.8405  -70.9528 C.ar      11 UNK        -0.0823 
     11 C11       -75.8250   27.3237  -70.5731 C.ar      11 UNK        -0.0830 
     12 C12       -74.7628   28.1989  -70.3295 C.ar      11 UNK        -0.1021 
     13 C13       -74.9243   29.5819  -70.4672 C.ar      11 UNK        -0.0753 
     14 C14       -76.1717   30.0803  -70.8691 C.ar      11 UNK        -0.0933 
     15 C15       -73.7496   30.4956  -70.1079 C.3       11 UNK         0.0166 
     16 S16       -73.7933   32.1644  -70.8569 S.3       11 UNK        -0.2615 
     17 C17       -72.4523   32.0950  -72.0947 C.3       11 UNK        -0.0865 
     18 CA        -72.9689   31.8412  -73.5336 C.3       10 UNK         0.0862 
     19 C         -71.8426   32.0976  -74.5793 C.2       10 UNK         0.5551 
     20 N         -71.3980   31.1078  -75.3446 N.am      10 UNK        -0.7319 
     21 O         -71.3657   33.2234  -74.6999 O.2       10 UNK        -0.5018 
     22 N         -73.6122   30.5243  -73.6394 N.am      10 UNK        -0.4509 
     23 C         -74.4524   30.1392  -74.6022 C.2       10 UNK         0.4899 
     24 O         -74.8389   30.8821  -75.5063 O.2       10 UNK        -0.4839 
     25 CA        -74.9071   28.6662  -74.5525 C.3       9 UNK         0.0222 
     26 CB        -76.0387   28.3875  -75.5629 C.3       9 UNK        -0.1966 
     27 N         -73.7960   27.7293  -74.7856 N.am      9 UNK        -0.4218 
     28 C         -72.7967   27.4696  -73.9215 C.2       9 UNK         0.5020 
     29 O         -72.7021   28.0102  -72.8189 O.2       9 UNK        -0.5274 
     30 CA        -71.6918   26.4755  -74.3298 C.3       8 UNK         0.0270 
     31 CB        -71.5646   25.3189  -73.3236 C.3       8 UNK        -0.1976 
     32 N         -71.8731   25.9189  -75.6688 N.am      8 UNK        -0.4313 
     33 C         -71.3624   26.4501  -76.7879 C.2       8 UNK         0.5041 
     34 O         -70.6592   27.4611  -76.8048 O.2       8 UNK        -0.5577 
     35 CA        -71.6991   25.7511  -78.1198 C.3       7 UNK         0.0284 
     36 CB        -70.5337   24.8520  -78.5636 C.3       7 UNK        -0.1958 
     37 N         -72.9336   24.9589  -78.0880 N.am      7 UNK        -0.4454 
     38 C         -74.1529   25.4555  -77.8406 C.2       7 UNK         0.5089 
     39 O         -74.3619   26.6466  -77.6137 O.2       7 UNK        -0.5125 
     40 CA        -75.3356   24.4729  -77.8019 C.3       6 UNK         0.0408 
     41 CB        -74.9942   23.0331  -78.2474 C.3       6 UNK        -0.1791 
     42 N         -75.9837   24.4614  -76.4879 N.am      6 UNK        -0.4762 
     43 C         -75.4359   24.1457  -75.3021 C.2       6 UNK         0.5007 
     44 O         -74.2393   23.8855  -75.1645 O.2       6 UNK        -0.5032 
     45 CA        -76.3791   24.0471  -74.0799 C.3       5 UNK         0.0783 
     46 C46       -76.2609   25.2543  -73.1154 C.3       11 UNK        -0.0857 
     47 S47       -74.9233   25.0549  -71.8933 S.3       11 UNK        -0.2512 
     48 C48       -75.6404   25.8218  -70.4061 C.3       11 UNK         0.0225 
     49 N         -77.7710   23.8377  -74.4975 N.am      5 UNK        -0.4615 
     50 C         -78.5413   22.8146  -74.1016 C.2       4 UNK         0.5053 
     51 O         -78.1830   21.9600  -73.2909 O.2       4 UNK        -0.5105 
     52 CA        -79.9555   22.7133  -74.7069 C.3       4 UNK         0.0263 
     53 CB        -80.9879   23.3195  -73.7432 C.3       4 UNK        -0.1981 
     54 N         -80.0724   23.3519  -76.0222 N.am      4 UNK        -0.4224 
     55 C         -79.4505   22.9139  -77.1295 C.2       3 UNK         0.4895 
     56 O         -78.8118   21.8621  -77.1744 O.2       3 UNK        -0.5091 
     57 CA        -79.5134   23.7875  -78.3997 C.3       3 UNK         0.0250 
     58 CB        -80.4325   23.1407  -79.4490 C.3       3 UNK        -0.1996 
     59 N         -79.9325   25.1791  -78.1975 N.am      3 UNK        -0.4254 
     60 C         -79.3454   26.0790  -77.3967 C.2       2 UNK         0.5004 
     61 O         -78.3777   25.8211  -76.6784 O.2       2 UNK        -0.5226 
     62 CA        -79.9767   27.4833  -77.3209 C.3       2 UNK         0.0269 
     63 CB        -81.1745   27.6983  -78.2745 C.3       2 UNK        -0.1926 
     64 N         -80.3606   27.8181  -75.9444 N.am      2 UNK        -0.4687 
     65 C         -81.1310   27.0882  -75.1239 C.2       1 UNK         0.5165 
     66 O         -81.6598   26.0208  -75.4521 O.2       1 UNK        -0.5079 
     67 H67       -85.1435   26.5839  -71.6113 H         1 UNK         0.0900 
     68 H68       -83.8826   25.3495  -71.6459 H         1 UNK         0.0900 
     69 H69       -85.0858   25.4157  -72.9345 H         1 UNK         0.0900 
     70 H70       -81.9102   26.1409  -72.3220 H         1 UNK         0.2959 
     71 H71       -81.6764   28.6484  -73.7717 H         1 UNK         0.1079 
     72 H72       -80.0863   27.5718  -71.8714 H         1 UNK         0.0837 
     73 H73       -79.2719   26.8520  -73.2274 H         1 UNK         0.0837 
     74 H74       -79.3636   29.4745  -70.8258 H         1 UNK         0.0685 
     75 H75       -78.5774   30.8656  -71.5154 H         1 UNK         0.0685 
     76 H76       -77.8911   27.1674  -71.1241 H         1 UNK         0.1434 
     77 H77       -73.8047   27.7984  -70.0269 H         1 UNK         0.1329 
     78 H78       -76.3225   31.1452  -70.9724 H         1 UNK         0.1335 
     79 H79       -72.8105   30.0014  -70.3601 H         1 UNK         0.0680 
     80 H80       -73.7431   30.6172  -69.0241 H         1 UNK         0.0680 
     81 H81       -71.9353   33.0554  -72.0434 H         1 UNK         0.1032 
     82 H82       -71.7083   31.3479  -71.8137 H         1 UNK         0.1032 
     83 H83       -73.7362   32.5893  -73.7425 H         1 UNK         0.0461 
     84 H84       -71.7884   30.1836  -75.2620 H         1 UNK         0.3453 
     85 H85       -70.6709   31.2911  -76.0178 H         1 UNK         0.3453 
     86 H86       -73.3083   29.8124  -72.9802 H         1 UNK         0.2984 
     87 H87       -75.3023   28.4814  -73.5513 H         1 UNK         0.0554 
     88 H88       -76.9162   28.9937  -75.3383 H         1 UNK         0.0847 
     89 H89       -76.3558   27.3464  -75.5549 H         1 UNK         0.0847 
     90 H90       -75.7378   28.6274  -76.5830 H         1 UNK         0.0847 
     91 H91       -73.7831   27.2805  -75.6955 H         1 UNK         0.3141 
     92 H92       -70.7541   27.0343  -74.2953 H         1 UNK         0.0743 
     93 H93       -71.4696   25.6887  -72.3018 H         1 UNK         0.0784 
     94 H94       -72.4314   24.6601  -73.3526 H         1 UNK         0.0784 
     95 H95       -70.6821   24.7135  -73.5303 H         1 UNK         0.0784 
     96 H96       -72.4750   25.1051  -75.7389 H         1 UNK         0.3213 
     97 H97       -71.8315   26.5352  -78.8685 H         1 UNK         0.0855 
     98 H98       -70.3677   24.0311  -77.8648 H         1 UNK         0.0814 
     99 H99       -69.6042   25.4203  -78.6243 H         1 UNK         0.0814 
    100 H100      -70.7133   24.4247  -79.5503 H         1 UNK         0.0814 
    101 H101      -72.8427   23.9653  -78.2431 H         1 UNK         0.3105 
    102 H102      -76.0750   24.8657  -78.5012 H         1 UNK         0.0547 
    103 H103      -74.2741   22.5517  -77.5848 H         1 UNK         0.0837 
    104 H104      -75.8895   22.4109  -78.2600 H         1 UNK         0.0837 
    105 H105      -74.5848   23.0171  -79.2583 H         1 UNK         0.0837 
    106 H106      -76.9392   24.8119  -76.4996 H         1 UNK         0.3020 
    107 H107      -76.0427   23.1558  -73.5451 H         1 UNK         0.1245 
    108 H108      -77.1932   25.3646  -72.5609 H         1 UNK         0.0781 
    109 H109      -76.1237   26.1933  -73.6470 H         1 UNK         0.0781 
    110 H110      -76.5885   25.3385  -70.1650 H         1 UNK         0.0836 
    111 H111      -74.9801   25.6276  -69.5596 H         1 UNK         0.0836 
    112 H112      -78.1463   24.4979  -75.1698 H         1 UNK         0.3022 
    113 H113      -80.1866   21.6531  -74.8303 H         1 UNK         0.0747 
    114 H114      -80.9998   22.7783  -72.7962 H         1 UNK         0.0793 
    115 H115      -81.9962   23.2757  -74.1557 H         1 UNK         0.0793 
    116 H116      -80.7611   24.3612  -73.5175 H         1 UNK         0.0793 
    117 H117      -80.5875   24.2252  -76.0601 H         1 UNK         0.3047 
    118 H118      -78.5005   23.8158  -78.8065 H         1 UNK         0.0822 
    119 H119      -80.1294   22.1133  -79.6566 H         1 UNK         0.0807 
    120 H120      -80.3992   23.6811  -80.3952 H         1 UNK         0.0807 
    121 H121      -81.4698   23.1123  -79.1127 H         1 UNK         0.0807 
    122 H122      -80.7504   25.4752  -78.7103 H         1 UNK         0.2946 
    123 H123      -79.1880   28.1807  -77.6086 H         1 UNK         0.1144 
    124 H124      -80.8914   27.5289  -79.3143 H         1 UNK         0.0793 
    125 H125      -81.5398   28.7236  -78.2120 H         1 UNK         0.0793 
    126 H126      -82.0128   27.0405  -78.0412 H         1 UNK         0.0793 
    127 H127      -79.9173   28.6405  -75.5558 H         1 UNK         0.2896 
@<TRIPOS>BOND
     1    1    2 1    
     2    1   67 1    
     3    1   68 1    
     4    1   69 1    
     5    2    3 2    
     6    2    4 am   BACKBONE|DICT|INTERRES
     7    4    5 1    
     8    4   70 1    
     9    5    6 1    
    10    5   65 1    
    11    5   71 1    
    12    6    7 1    
    13    6   72 1    
    14    6   73 1    
    15    7    8 1    
    16    8    9 1    
    17    8   74 1    
    18    8   75 1    
    19    9   10 ar   
    20    9   14 ar   
    21   10   11 ar   
    22   10   76 1    
    23   11   12 ar   
    24   11   48 1    
    25   12   13 ar   
    26   12   77 1    
    27   13   14 ar   
    28   13   15 1    
    29   14   78 1    
    30   15   16 1    
    31   15   79 1    
    32   15   80 1    
    33   16   17 1    
    34   17   18 1    
    35   17   81 1    
    36   17   82 1    
    37   18   19 1    
    38   18   22 1    
    39   18   83 1    
    40   19   20 am   BACKBONE|DICT|INTERRES
    41   19   21 2    
    42   20   84 1    
    43   20   85 1    
    44   22   23 am   BACKBONE|DICT|INTERRES
    45   22   86 1    
    46   23   24 2    
    47   23   25 1    
    48   25   26 1    
    49   25   27 1    
    50   25   87 1    
    51   26   88 1    
    52   26   89 1    
    53   26   90 1    
    54   27   28 am   BACKBONE|DICT|INTERRES
    55   27   91 1    
    56   28   29 2    
    57   28   30 1    
    58   30   31 1    
    59   30   32 1    
    60   30   92 1    
    61   31   93 1    
    62   31   94 1    
    63   31   95 1    
    64   32   33 am   BACKBONE|DICT|INTERRES
    65   32   96 1    
    66   33   34 2    
    67   33   35 1    
    68   35   36 1    
    69   35   37 1    
    70   35   97 1    
    71   36   98 1    
    72   36   99 1    
    73   36  100 1    
    74   37   38 am   BACKBONE|DICT|INTERRES
    75   37  101 1    
    76   38   39 2    
    77   38   40 1    
    78   40   41 1    
    79   40   42 1    
    80   40  102 1    
    81   41  103 1    
    82   41  104 1    
    83   41  105 1    
    84   42   43 am   BACKBONE|DICT|INTERRES
    85   42  106 1    
    86   43   44 2    
    87   43   45 1    
    88   45   46 1    
    89   45   49 1    
    90   45  107 1    
    91   46   47 1    
    92   46  108 1    
    93   46  109 1    
    94   47   48 1    
    95   48  110 1    
    96   48  111 1    
    97   49   50 am   BACKBONE|DICT|INTERRES
    98   49  112 1    
    99   50   51 2    
   100   50   52 1    
   101   52   53 1    
   102   52   54 1    
   103   52  113 1    
   104   53  114 1    
   105   53  115 1    
   106   53  116 1    
   107   54   55 am   BACKBONE|DICT|INTERRES
   108   54  117 1    
   109   55   56 2    
   110   55   57 1    
   111   57   58 1    
   112   57   59 1    
   113   57  118 1    
   114   58  119 1    
   115   58  120 1    
   116   58  121 1    
   117   59   60 am   BACKBONE|DICT|INTERRES
   118   59  122 1    
   119   60   61 2    
   120   60   62 1    
   121   62   63 1    
   122   62   64 1    
   123   62  123 1    
   124   63  124 1    
   125   63  125 1    
   126   63  126 1    
   127   64   65 am   BACKBONE|DICT|INTERRES
   128   64  127 1    
   129   65   66 2    
@<TRIPOS>SUBSTRUCTURE
     1 UNK         1 GROUP             0       ****    0 ROOT    
