@<TRIPOS>MOLECULE
3R135
127   129    1
SMALL
USER_CHARGES


@<TRIPOS>ATOM
      1 CA        -75.2546   22.1491  -74.5321 C.3       0 UNK        -0.1998 
      2 C         -76.4030   21.8290  -73.5867 C.2       0 UNK         0.4909 
      3 O         -76.6515   20.6594  -73.2914 O.2       0 UNK        -0.5240 
      4 N         -77.0966   22.8647  -73.1047 N.am      1 UNK        -0.4739 
      5 CA        -78.2899   22.7686  -72.2594 C.3       1 UNK         0.0864 
      6 C6        -78.4619   24.0557  -71.4087 C.3       11 UNK        -0.0881 
      7 S7        -78.6027   25.5769  -72.4103 S.3       11 UNK        -0.2682 
      8 C8        -78.4071   26.8554  -71.1323 C.3       11 UNK         0.0289 
      9 C9        -78.2296   28.2275  -71.7634 C.ar      11 UNK        -0.0687 
     10 C10       -79.2485   28.7714  -72.5495 C.ar      11 UNK        -0.0823 
     11 C11       -79.0745   30.0026  -73.1856 C.ar      11 UNK        -0.0830 
     12 C12       -77.8884   30.7164  -72.9915 C.ar      11 UNK        -0.1021 
     13 C13       -76.8667   30.1909  -72.1943 C.ar      11 UNK        -0.0753 
     14 C14       -77.0423   28.9446  -71.5847 C.ar      11 UNK        -0.0933 
     15 C15       -75.5748   30.9694  -71.9927 C.3       11 UNK         0.0166 
     16 S16       -74.6311   31.1136  -73.5406 S.3       11 UNK        -0.2615 
     17 C17       -73.1500   32.0029  -72.9595 C.3       11 UNK        -0.0865 
     18 CA        -71.8715   31.6145  -73.7458 C.3       10 UNK         0.0862 
     19 C         -70.6841   32.5126  -73.2984 C.2       10 UNK         0.5551 
     20 N         -70.4340   33.6073  -74.0035 N.am      10 UNK        -0.7319 
     21 O         -70.0245   32.2507  -72.2940 O.2       10 UNK        -0.5018 
     22 N         -71.5816   30.1766  -73.6300 N.am      10 UNK        -0.4509 
     23 C         -70.5750   29.5263  -74.2238 C.2       10 UNK         0.4899 
     24 O         -69.8029   30.0459  -75.0304 O.2       10 UNK        -0.4839 
     25 CA        -70.3830   28.0418  -73.8640 C.3       9 UNK         0.0222 
     26 CB        -69.7784   27.8859  -72.4545 C.3       9 UNK        -0.1966 
     27 N         -71.5748   27.2003  -74.0353 N.am      9 UNK        -0.4218 
     28 C         -72.7467   27.2278  -73.3872 C.2       9 UNK         0.5020 
     29 O         -73.0081   28.0320  -72.4899 O.2       9 UNK        -0.5274 
     30 CA        -73.7885   26.1576  -73.7888 C.3       8 UNK         0.0270 
     31 CB        -75.1772   26.4464  -73.1978 C.3       8 UNK        -0.1976 
     32 N         -73.9447   25.9547  -75.2342 N.am      8 UNK        -0.4313 
     33 C         -73.0694   25.3666  -76.0605 C.2       8 UNK         0.5041 
     34 O         -71.9567   24.9763  -75.7051 O.2       8 UNK        -0.5577 
     35 CA        -73.4925   25.1876  -77.5256 C.3       7 UNK         0.0284 
     36 CB        -74.1694   23.8225  -77.7226 C.3       7 UNK        -0.1958 
     37 N         -74.3971   26.2494  -77.9705 N.am      7 UNK        -0.4454 
     38 C         -73.9894   27.4114  -78.4994 C.2       7 UNK         0.5089 
     39 O         -72.8073   27.6968  -78.6938 O.2       7 UNK        -0.5125 
     40 CA        -75.0766   28.4280  -78.8964 C.3       6 UNK         0.0408 
     41 CB        -75.4141   28.2921  -80.3897 C.3       6 UNK        -0.1791 
     42 N         -76.3092   28.3134  -78.1125 N.am      6 UNK        -0.4762 
     43 C         -76.4174   28.6329  -76.8139 C.2       6 UNK         0.5007 
     44 O         -75.4831   29.0620  -76.1414 O.2       6 UNK        -0.5032 
     45 CA        -77.7929   28.3992  -76.1552 C.3       5 UNK         0.0783 
     46 C46       -78.6957   29.6421  -76.3737 C.3       11 UNK        -0.0857 
     47 S47       -80.3402   29.4905  -75.5936 S.3       11 UNK        -0.2512 
     48 C48       -80.1554   30.5367  -74.1121 C.3       11 UNK         0.0225 
     49 N         -78.4401   27.1594  -76.6084 N.am      5 UNK        -0.4615 
     50 C         -77.9147   25.9279  -76.5746 C.2       4 UNK         0.5053 
     51 O         -76.7717   25.6810  -76.1826 O.2       4 UNK        -0.5105 
     52 CA        -78.8198   24.7950  -77.0902 C.3       4 UNK         0.0263 
     53 CB        -78.0901   23.4420  -77.1722 C.3       4 UNK        -0.1981 
     54 N         -80.0157   24.6465  -76.2574 N.am      4 UNK        -0.4224 
     55 C         -81.1297   25.3859  -76.3794 C.2       3 UNK         0.4895 
     56 O         -81.2352   26.2965  -77.2031 O.2       3 UNK        -0.5091 
     57 CA        -82.3232   25.0719  -75.4563 C.3       3 UNK         0.0250 
     58 CB        -83.6648   25.1088  -76.2124 C.3       3 UNK        -0.1996 
     59 N         -82.1765   23.7745  -74.7953 N.am      3 UNK        -0.4254 
     60 C         -82.4406   23.5276  -73.5073 C.2       2 UNK         0.5004 
     61 O         -82.9388   24.3476  -72.7351 O.2       2 UNK        -0.5226 
     62 CA        -82.0349   22.1425  -72.9670 C.3       2 UNK         0.0269 
     63 CB        -82.2230   20.9945  -73.9853 C.3       2 UNK        -0.1926 
     64 N         -80.6675   22.1787  -72.4288 N.am      2 UNK        -0.4687 
     65 C         -79.5486   22.4805  -73.1063 C.2       1 UNK         0.5165 
     66 O         -79.5086   22.5998  -74.3341 O.2       1 UNK        -0.5079 
     67 H67       -75.1451   23.2226  -74.6852 H         1 UNK         0.0900 
     68 H68       -75.4267   21.6831  -75.5019 H         1 UNK         0.0900 
     69 H69       -74.3168   21.7671  -74.1300 H         1 UNK         0.0900 
     70 H70       -76.8866   23.7993  -73.4244 H         1 UNK         0.2959 
     71 H71       -78.1616   21.9248  -71.5776 H         1 UNK         0.1079 
     72 H72       -77.6031   24.1594  -70.7436 H         1 UNK         0.0837 
     73 H73       -79.3325   23.9843  -70.7543 H         1 UNK         0.0837 
     74 H74       -79.2846   26.8600  -70.4843 H         1 UNK         0.0685 
     75 H75       -77.5502   26.6095  -70.5032 H         1 UNK         0.0685 
     76 H76       -80.1614   28.2122  -72.7041 H         1 UNK         0.1434 
     77 H77       -77.7447   31.6713  -73.4786 H         1 UNK         0.1329 
     78 H78       -76.2480   28.5279  -70.9807 H         1 UNK         0.1335 
     79 H79       -75.8076   31.9662  -71.6156 H         1 UNK         0.0680 
     80 H80       -74.9507   30.4856  -71.2393 H         1 UNK         0.0680 
     81 H81       -73.0049   31.8144  -71.8939 H         1 UNK         0.1032 
     82 H82       -73.3496   33.0722  -73.0547 H         1 UNK         0.1032 
     83 H83       -72.0559   31.8067  -74.8048 H         1 UNK         0.0461 
     84 H84       -69.6791   34.2120  -73.7193 H         1 UNK         0.3453 
     85 H85       -70.9767   33.8355  -74.8221 H         1 UNK         0.3453 
     86 H86       -72.1939   29.6355  -73.0243 H         1 UNK         0.2984 
     87 H87       -69.6525   27.6441  -74.5704 H         1 UNK         0.0554 
     88 H88       -69.5462   26.8438  -72.2357 H         1 UNK         0.0847 
     89 H89       -70.4508   28.2495  -71.6769 H         1 UNK         0.0847 
     90 H90       -68.8493   28.4506  -72.3660 H         1 UNK         0.0847 
     91 H91       -71.4910   26.4692  -74.7408 H         1 UNK         0.3141 
     92 H92       -73.4401   25.2153  -73.3614 H         1 UNK         0.0743 
     93 H93       -75.5746   27.3957  -73.5603 H         1 UNK         0.0784 
     94 H94       -75.8868   25.6656  -73.4655 H         1 UNK         0.0784 
     95 H95       -75.1449   26.4948  -72.1089 H         1 UNK         0.0784 
     96 H96       -74.8464   26.2160  -75.6184 H         1 UNK         0.3213 
     97 H97       -72.5869   25.2021  -78.1365 H         1 UNK         0.0855 
     98 H98       -75.0696   23.7298  -77.1166 H         1 UNK         0.0814 
     99 H99       -73.4996   23.0107  -77.4356 H         1 UNK         0.0814 
    100 H100      -74.4463   23.6619  -78.7645 H         1 UNK         0.0814 
    101 H101      -75.3836   26.1161  -77.7865 H         1 UNK         0.3105 
    102 H102      -74.6656   29.4265  -78.7319 H         1 UNK         0.0547 
    103 H103      -74.5188   28.4029  -81.0032 H         1 UNK         0.0837 
    104 H104      -75.8471   27.3179  -80.6202 H         1 UNK         0.0837 
    105 H105      -76.1194   29.0591  -80.7099 H         1 UNK         0.0837 
    106 H106      -77.1269   27.9612  -78.5897 H         1 UNK         0.3020 
    107 H107      -77.6128   28.2869  -75.0832 H         1 UNK         0.1245 
    108 H108      -78.2052   30.5424  -75.9980 H         1 UNK         0.0781 
    109 H109      -78.8554   29.8127  -77.4401 H         1 UNK         0.0781 
    110 H110      -79.9411   31.5620  -74.4177 H         1 UNK         0.0836 
    111 H111      -81.1056   30.5675  -73.5771 H         1 UNK         0.0836 
    112 H112      -79.4057   27.2468  -76.9077 H         1 UNK         0.3022 
    113 H113      -79.1253   25.0585  -78.1051 H         1 UNK         0.0747 
    114 H114      -78.7616   22.6469  -77.4960 H         1 UNK         0.0793 
    115 H115      -77.2737   23.4861  -77.8927 H         1 UNK         0.0793 
    116 H116      -77.6675   23.1497  -76.2107 H         1 UNK         0.0793 
    117 H117      -79.9443   23.9576  -75.5107 H         1 UNK         0.3047 
    118 H118      -82.3292   25.8654  -74.7057 H         1 UNK         0.0822 
    119 H119      -84.5031   24.9269  -75.5397 H         1 UNK         0.0807 
    120 H120      -83.7001   24.3588  -77.0033 H         1 UNK         0.0807 
    121 H121      -83.8309   26.0824  -76.6754 H         1 UNK         0.0807 
    122 H122      -81.7358   23.0426  -75.3362 H         1 UNK         0.2946 
    123 H123      -82.6981   21.9382  -72.1243 H         1 UNK         0.1144 
    124 H124      -83.2428   20.9823  -74.3722 H         1 UNK         0.0793 
    125 H125      -82.0482   20.0269  -73.5148 H         1 UNK         0.0793 
    126 H126      -81.5511   21.0660  -74.8403 H         1 UNK         0.0793 
    127 H127      -80.6073   22.1169  -71.4216 H         1 UNK         0.2896 
@<TRIPOS>BOND
     1    1    2 1    
     2    1   67 1    
     3    1   68 1    
     4    1   69 1    
     5    2    3 2    
     6    2    4 am   BACKBONE|DICT|INTERRES
     7    4    5 1    
     8    4   70 1    
     9    5    6 1    
    10    5   65 1    
    11    5   71 1    
    12    6    7 1    
    13    6   72 1    
    14    6   73 1    
    15    7    8 1    
    16    8    9 1    
    17    8   74 1    
    18    8   75 1    
    19    9   10 ar   
    20    9   14 ar   
    21   10   11 ar   
    22   10   76 1    
    23   11   12 ar   
    24   11   48 1    
    25   12   13 ar   
    26   12   77 1    
    27   13   14 ar   
    28   13   15 1    
    29   14   78 1    
    30   15   16 1    
    31   15   79 1    
    32   15   80 1    
    33   16   17 1    
    34   17   18 1    
    35   17   81 1    
    36   17   82 1    
    37   18   19 1    
    38   18   22 1    
    39   18   83 1    
    40   19   20 am   BACKBONE|DICT|INTERRES
    41   19   21 2    
    42   20   84 1    
    43   20   85 1    
    44   22   23 am   BACKBONE|DICT|INTERRES
    45   22   86 1    
    46   23   24 2    
    47   23   25 1    
    48   25   26 1    
    49   25   27 1    
    50   25   87 1    
    51   26   88 1    
    52   26   89 1    
    53   26   90 1    
    54   27   28 am   BACKBONE|DICT|INTERRES
    55   27   91 1    
    56   28   29 2    
    57   28   30 1    
    58   30   31 1    
    59   30   32 1    
    60   30   92 1    
    61   31   93 1    
    62   31   94 1    
    63   31   95 1    
    64   32   33 am   BACKBONE|DICT|INTERRES
    65   32   96 1    
    66   33   34 2    
    67   33   35 1    
    68   35   36 1    
    69   35   37 1    
    70   35   97 1    
    71   36   98 1    
    72   36   99 1    
    73   36  100 1    
    74   37   38 am   BACKBONE|DICT|INTERRES
    75   37  101 1    
    76   38   39 2    
    77   38   40 1    
    78   40   41 1    
    79   40   42 1    
    80   40  102 1    
    81   41  103 1    
    82   41  104 1    
    83   41  105 1    
    84   42   43 am   BACKBONE|DICT|INTERRES
    85   42  106 1    
    86   43   44 2    
    87   43   45 1    
    88   45   46 1    
    89   45   49 1    
    90   45  107 1    
    91   46   47 1    
    92   46  108 1    
    93   46  109 1    
    94   47   48 1    
    95   48  110 1    
    96   48  111 1    
    97   49   50 am   BACKBONE|DICT|INTERRES
    98   49  112 1    
    99   50   51 2    
   100   50   52 1    
   101   52   53 1    
   102   52   54 1    
   103   52  113 1    
   104   53  114 1    
   105   53  115 1    
   106   53  116 1    
   107   54   55 am   BACKBONE|DICT|INTERRES
   108   54  117 1    
   109   55   56 2    
   110   55   57 1    
   111   57   58 1    
   112   57   59 1    
   113   57  118 1    
   114   58  119 1    
   115   58  120 1    
   116   58  121 1    
   117   59   60 am   BACKBONE|DICT|INTERRES
   118   59  122 1    
   119   60   61 2    
   120   60   62 1    
   121   62   63 1    
   122   62   64 1    
   123   62  123 1    
   124   63  124 1    
   125   63  125 1    
   126   63  126 1    
   127   64   65 am   BACKBONE|DICT|INTERRES
   128   64  127 1    
   129   65   66 2    
@<TRIPOS>SUBSTRUCTURE
     1 UNK         1 GROUP             0       ****    0 ROOT    
