@<TRIPOS>MOLECULE
3R135
127   129    1
SMALL
USER_CHARGES


@<TRIPOS>ATOM
      1 CA        -80.8778   29.6011  -76.8233 C.3       0 UNK        -0.1998 
      2 C         -82.0539   29.5075  -75.8553 C.2       0 UNK         0.4909 
      3 O         -83.1196   30.0455  -76.1497 O.2       0 UNK        -0.5240 
      4 N         -81.9186   28.8605  -74.6885 N.am      1 UNK        -0.4739 
      5 CA        -80.7461   28.1143  -74.2044 C.3       1 UNK         0.0864 
      6 C6        -80.8526   27.8185  -72.6869 C.3       11 UNK        -0.0881 
      7 S7        -81.0105   29.3537  -71.7049 S.3       11 UNK        -0.2682 
      8 C8        -80.0180   28.9972  -70.2191 C.3       11 UNK         0.0289 
      9 C9        -78.5452   28.7989  -70.5440 C.ar      11 UNK        -0.0687 
     10 C10       -77.9647   27.5334  -70.4155 C.ar      11 UNK        -0.0823 
     11 C11       -76.6244   27.3258  -70.7596 C.ar      11 UNK        -0.0830 
     12 C12       -75.8623   28.4102  -71.2007 C.ar      11 UNK        -0.1021 
     13 C13       -76.4181   29.6865  -71.2976 C.ar      11 UNK        -0.0753 
     14 C14       -77.7636   29.8770  -70.9726 C.ar      11 UNK        -0.0933 
     15 C15       -75.5511   30.8496  -71.7486 C.3       11 UNK         0.0166 
     16 S16       -75.6856   31.1032  -73.5413 S.3       11 UNK        -0.2615 
     17 C17       -74.1221   31.9697  -73.9026 C.3       11 UNK        -0.0865 
     18 CA        -73.1937   31.1800  -74.8765 C.3       10 UNK         0.0862 
     19 C         -71.9979   32.0439  -75.3865 C.2       10 UNK         0.5551 
     20 N         -70.8380   31.4653  -75.6753 N.am      10 UNK        -0.7319 
     21 O         -72.1262   33.2547  -75.5535 O.2       10 UNK        -0.5018 
     22 N         -72.8059   29.8277  -74.4099 N.am      10 UNK        -0.4509 
     23 C         -72.0974   29.5627  -73.3029 C.2       10 UNK         0.4899 
     24 O         -71.8017   30.4223  -72.4721 O.2       10 UNK        -0.4839 
     25 CA        -71.5621   28.1351  -73.0827 C.3       9 UNK         0.0222 
     26 CB        -71.9524   27.5647  -71.7061 C.3       9 UNK        -0.1966 
     27 N         -71.9181   27.1518  -74.1155 N.am      9 UNK        -0.4218 
     28 C         -71.0151   26.3704  -74.7297 C.2       9 UNK         0.5020 
     29 O         -69.7981   26.5585  -74.6832 O.2       9 UNK        -0.5274 
     30 CA        -71.5362   25.1334  -75.4806 C.3       8 UNK         0.0270 
     31 CB        -71.9703   24.0396  -74.4898 C.3       8 UNK        -0.1976 
     32 N         -72.6369   25.4304  -76.3915 N.am      8 UNK        -0.4313 
     33 C         -72.5030   26.0462  -77.5735 C.2       8 UNK         0.5041 
     34 O         -71.4234   26.4027  -78.0471 O.2       8 UNK        -0.5577 
     35 CA        -73.8002   26.3298  -78.3520 C.3       7 UNK         0.0284 
     36 CB        -74.2196   25.1131  -79.1930 C.3       7 UNK        -0.1958 
     37 N         -74.8946   26.7329  -77.4638 N.am      7 UNK        -0.4454 
     38 C         -74.9025   27.8879  -76.7849 C.2       7 UNK         0.5089 
     39 O         -74.0361   28.7511  -76.9104 O.2       7 UNK        -0.5125 
     40 CA        -76.0302   28.1067  -75.7649 C.3       6 UNK         0.0408 
     41 CB        -77.1926   28.8896  -76.3886 C.3       6 UNK        -0.1791 
     42 N         -76.5259   26.8680  -75.1645 N.am      6 UNK        -0.4762 
     43 C         -75.8137   26.1122  -74.3160 C.2       6 UNK         0.5007 
     44 O         -74.6716   26.3906  -73.9449 O.2       6 UNK        -0.5032 
     45 CA        -76.4634   24.7842  -73.8793 C.3       5 UNK         0.0783 
     46 C46       -77.5656   25.0042  -72.8101 C.3       11 UNK        -0.0857 
     47 S47       -77.0351   24.5506  -71.1263 S.3       11 UNK        -0.2512 
     48 C48       -75.9686   25.9519  -70.6443 C.3       11 UNK         0.0225 
     49 N         -76.9593   24.0300  -75.0362 N.am      5 UNK        -0.4615 
     50 C         -76.1767   23.5388  -76.0071 C.2       4 UNK         0.5053 
     51 O         -74.9575   23.7076  -76.0303 O.2       4 UNK        -0.5105 
     52 CA        -76.8427   22.7820  -77.1731 C.3       4 UNK         0.0263 
     53 CB        -76.0108   21.5607  -77.6199 C.3       4 UNK        -0.1981 
     54 N         -78.2468   22.4121  -76.9522 N.am      4 UNK        -0.4224 
     55 C         -78.7453   21.5483  -76.0531 C.2       3 UNK         0.4895 
     56 O         -78.0645   20.9322  -75.2320 O.2       3 UNK        -0.5091 
     57 CA        -80.2747   21.3593  -76.0939 C.3       3 UNK         0.0250 
     58 CB        -80.8340   20.6274  -74.8539 C.3       3 UNK        -0.1996 
     59 N         -80.9864   22.6221  -76.3455 N.am      3 UNK        -0.4254 
     60 C         -81.0332   23.6978  -75.5441 C.2       2 UNK         0.5004 
     61 O         -80.5330   23.7399  -74.4189 O.2       2 UNK        -0.5226 
     62 CA        -81.7728   24.9222  -76.1198 C.3       2 UNK         0.0269 
     63 CB        -83.2691   24.6167  -76.3183 C.3       2 UNK        -0.1926 
     64 N         -81.6632   26.1349  -75.3041 N.am      2 UNK        -0.4687 
     65 C         -80.5434   26.8104  -75.0059 C.2       1 UNK         0.5165 
     66 O         -79.4143   26.4898  -75.3841 O.2       1 UNK        -0.5079 
     67 H67       -80.0170   30.0620  -76.3418 H         1 UNK         0.0900 
     68 H68       -81.1409   30.2202  -77.6807 H         1 UNK         0.0900 
     69 H69       -80.5943   28.6204  -77.2028 H         1 UNK         0.0900 
     70 H70       -82.7034   28.8681  -74.0528 H         1 UNK         0.2959 
     71 H71       -79.8587   28.7309  -74.3550 H         1 UNK         0.1079 
     72 H72       -79.9784   27.2599  -72.3523 H         1 UNK         0.0837 
     73 H73       -81.7151   27.1849  -72.4713 H         1 UNK         0.0837 
     74 H74       -80.1205   29.8277  -69.5192 H         1 UNK         0.0685 
     75 H75       -80.4307   28.1208  -69.7168 H         1 UNK         0.0685 
     76 H76       -78.5639   26.7036  -70.0669 H         1 UNK         0.1434 
     77 H77       -74.8274   28.2695  -71.4702 H         1 UNK         0.1329 
     78 H78       -78.2061   30.8596  -71.0641 H         1 UNK         0.1335 
     79 H79       -75.8406   31.7647  -71.2300 H         1 UNK         0.0680 
     80 H80       -74.5118   30.6559  -71.4782 H         1 UNK         0.0680 
     81 H81       -73.5974   32.2191  -72.9798 H         1 UNK         0.1032 
     82 H82       -74.3999   32.9288  -74.3432 H         1 UNK         0.1032 
     83 H83       -73.7838   31.0115  -75.7762 H         1 UNK         0.0461 
     84 H84       -70.7228   30.4710  -75.5654 H         1 UNK         0.3453 
     85 H85       -70.0749   32.0297  -76.0141 H         1 UNK         0.3453 
     86 H86       -72.9940   29.0856  -75.0722 H         1 UNK         0.2984 
     87 H87       -70.4795   28.2736  -73.0620 H         1 UNK         0.0554 
     88 H88       -71.2906   26.7445  -71.4277 H         1 UNK         0.0847 
     89 H89       -72.9666   27.1715  -71.7060 H         1 UNK         0.0847 
     90 H90       -71.8823   28.3125  -70.9150 H         1 UNK         0.0847 
     91 H91       -72.9053   26.9053  -74.1828 H         1 UNK         0.3141 
     92 H92       -70.7093   24.7333  -76.0716 H         1 UNK         0.0743 
     93 H93       -72.8207   24.3533  -73.8834 H         1 UNK         0.0784 
     94 H94       -72.2545   23.1251  -75.0109 H         1 UNK         0.0784 
     95 H95       -71.1581   23.7854  -73.8073 H         1 UNK         0.0784 
     96 H96       -73.5563   25.0947  -76.1184 H         1 UNK         0.3213 
     97 H97       -73.6010   27.1581  -79.0358 H         1 UNK         0.0855 
     98 H98       -74.3883   24.2297  -78.5786 H         1 UNK         0.0814 
     99 H99       -73.4420   24.8580  -79.9142 H         1 UNK         0.0814 
    100 H100      -75.1304   25.3123  -79.7576 H         1 UNK         0.0814 
    101 H101      -75.6299   26.0653  -77.2889 H         1 UNK         0.3105 
    102 H102      -75.6094   28.7082  -74.9603 H         1 UNK         0.0547 
    103 H103      -76.8363   29.7978  -76.8769 H         1 UNK         0.0837 
    104 H104      -77.7281   28.3007  -77.1341 H         1 UNK         0.0837 
    105 H105      -77.9013   29.1975  -75.6220 H         1 UNK         0.0837 
    106 H106      -77.4792   26.5912  -75.3886 H         1 UNK         0.3020 
    107 H107      -75.6648   24.1773  -73.4459 H         1 UNK         0.1245 
    108 H108      -78.4286   24.3723  -73.0206 H         1 UNK         0.0781 
    109 H109      -77.9622   26.0204  -72.8193 H         1 UNK         0.0781 
    110 H110      -75.0617   25.9105  -71.2488 H         1 UNK         0.0836 
    111 H111      -75.6514   25.8067  -69.6110 H         1 UNK         0.0836 
    112 H112      -77.9564   23.8718  -75.0807 H         1 UNK         0.3022 
    113 H113      -76.8536   23.4862  -78.0062 H         1 UNK         0.0747 
    114 H114      -76.4725   21.0538  -78.4672 H         1 UNK         0.0793 
    115 H115      -75.0087   21.8577  -77.9313 H         1 UNK         0.0793 
    116 H116      -75.8943   20.8334  -76.8159 H         1 UNK         0.0793 
    117 H117      -78.9088   22.8673  -77.5652 H         1 UNK         0.3047 
    118 H118      -80.4716   20.7228  -76.9581 H         1 UNK         0.0822 
    119 H119      -81.9162   20.5127  -74.9148 H         1 UNK         0.0807 
    120 H120      -80.6037   21.1558  -73.9284 H         1 UNK         0.0807 
    121 H121      -80.4074   19.6273  -74.7675 H         1 UNK         0.0807 
    122 H122      -81.4520   22.6797  -77.2413 H         1 UNK         0.2946 
    123 H123      -81.3259   25.1448  -77.0913 H         1 UNK         0.1144 
    124 H124      -83.4235   23.7697  -76.9876 H         1 UNK         0.0793 
    125 H125      -83.7924   25.4656  -76.7592 H         1 UNK         0.0793 
    126 H126      -83.7580   24.3767  -75.3730 H         1 UNK         0.0793 
    127 H127      -82.5318   26.5009  -74.9431 H         1 UNK         0.2896 
@<TRIPOS>BOND
     1    1    2 1    
     2    1   67 1    
     3    1   68 1    
     4    1   69 1    
     5    2    3 2    
     6    2    4 am   BACKBONE|DICT|INTERRES
     7    4    5 1    
     8    4   70 1    
     9    5    6 1    
    10    5   65 1    
    11    5   71 1    
    12    6    7 1    
    13    6   72 1    
    14    6   73 1    
    15    7    8 1    
    16    8    9 1    
    17    8   74 1    
    18    8   75 1    
    19    9   10 ar   
    20    9   14 ar   
    21   10   11 ar   
    22   10   76 1    
    23   11   12 ar   
    24   11   48 1    
    25   12   13 ar   
    26   12   77 1    
    27   13   14 ar   
    28   13   15 1    
    29   14   78 1    
    30   15   16 1    
    31   15   79 1    
    32   15   80 1    
    33   16   17 1    
    34   17   18 1    
    35   17   81 1    
    36   17   82 1    
    37   18   19 1    
    38   18   22 1    
    39   18   83 1    
    40   19   20 am   BACKBONE|DICT|INTERRES
    41   19   21 2    
    42   20   84 1    
    43   20   85 1    
    44   22   23 am   BACKBONE|DICT|INTERRES
    45   22   86 1    
    46   23   24 2    
    47   23   25 1    
    48   25   26 1    
    49   25   27 1    
    50   25   87 1    
    51   26   88 1    
    52   26   89 1    
    53   26   90 1    
    54   27   28 am   BACKBONE|DICT|INTERRES
    55   27   91 1    
    56   28   29 2    
    57   28   30 1    
    58   30   31 1    
    59   30   32 1    
    60   30   92 1    
    61   31   93 1    
    62   31   94 1    
    63   31   95 1    
    64   32   33 am   BACKBONE|DICT|INTERRES
    65   32   96 1    
    66   33   34 2    
    67   33   35 1    
    68   35   36 1    
    69   35   37 1    
    70   35   97 1    
    71   36   98 1    
    72   36   99 1    
    73   36  100 1    
    74   37   38 am   BACKBONE|DICT|INTERRES
    75   37  101 1    
    76   38   39 2    
    77   38   40 1    
    78   40   41 1    
    79   40   42 1    
    80   40  102 1    
    81   41  103 1    
    82   41  104 1    
    83   41  105 1    
    84   42   43 am   BACKBONE|DICT|INTERRES
    85   42  106 1    
    86   43   44 2    
    87   43   45 1    
    88   45   46 1    
    89   45   49 1    
    90   45  107 1    
    91   46   47 1    
    92   46  108 1    
    93   46  109 1    
    94   47   48 1    
    95   48  110 1    
    96   48  111 1    
    97   49   50 am   BACKBONE|DICT|INTERRES
    98   49  112 1    
    99   50   51 2    
   100   50   52 1    
   101   52   53 1    
   102   52   54 1    
   103   52  113 1    
   104   53  114 1    
   105   53  115 1    
   106   53  116 1    
   107   54   55 am   BACKBONE|DICT|INTERRES
   108   54  117 1    
   109   55   56 2    
   110   55   57 1    
   111   57   58 1    
   112   57   59 1    
   113   57  118 1    
   114   58  119 1    
   115   58  120 1    
   116   58  121 1    
   117   59   60 am   BACKBONE|DICT|INTERRES
   118   59  122 1    
   119   60   61 2    
   120   60   62 1    
   121   62   63 1    
   122   62   64 1    
   123   62  123 1    
   124   63  124 1    
   125   63  125 1    
   126   63  126 1    
   127   64   65 am   BACKBONE|DICT|INTERRES
   128   64  127 1    
   129   65   66 2    
@<TRIPOS>SUBSTRUCTURE
     1 UNK         1 GROUP             0       ****    0 ROOT    
