@<TRIPOS>MOLECULE
3R135
127   129    1
SMALL
USER_CHARGES


@<TRIPOS>ATOM
      1 CA        -76.3118   22.1906  -73.3882 C.3       0 UNK        -0.1998 
      2 C         -77.5226   23.1058  -73.4710 C.2       0 UNK         0.4909 
      3 O         -77.9407   23.4549  -74.5737 O.2       0 UNK        -0.5240 
      4 N         -78.0952   23.4820  -72.3170 N.am      1 UNK        -0.4739 
      5 CA        -79.2030   24.4426  -72.1526 C.3       1 UNK         0.0864 
      6 C6        -78.7412   25.9157  -72.3242 C.3       11 UNK        -0.0881 
      7 S7        -77.5807   26.3749  -70.9890 S.3       11 UNK        -0.2682 
      8 C8        -78.3996   27.8037  -70.2198 C.3       11 UNK         0.0289 
      9 C9        -77.9899   29.1027  -70.8960 C.ar      11 UNK        -0.0687 
     10 C10       -78.7597   29.6392  -71.9311 C.ar      11 UNK        -0.0823 
     11 C11       -78.3923   30.8461  -72.5344 C.ar      11 UNK        -0.0830 
     12 C12       -77.2435   31.5123  -72.0966 C.ar      11 UNK        -0.1021 
     13 C13       -76.4689   30.9944  -71.0540 C.ar      11 UNK        -0.0753 
     14 C14       -76.8503   29.7854  -70.4600 C.ar      11 UNK        -0.0933 
     15 C15       -75.2860   31.8089  -70.5324 C.3       11 UNK         0.0166 
     16 S16       -73.8838   30.8251  -69.8921 S.3       11 UNK        -0.2615 
     17 C17       -72.9278   30.2037  -71.3293 C.3       11 UNK        -0.0865 
     18 CA        -73.2454   30.7398  -72.7589 C.3       10 UNK         0.0862 
     19 C         -72.7126   32.1809  -73.0408 C.2       10 UNK         0.5551 
     20 N         -72.5610   32.5741  -74.3001 N.am      10 UNK        -0.7319 
     21 O         -72.4410   32.9556  -72.1274 O.2       10 UNK        -0.5018 
     22 N         -72.8535   29.7632  -73.7903 N.am      10 UNK        -0.4509 
     23 C         -71.6007   29.3566  -74.0490 C.2       10 UNK         0.4899 
     24 O         -70.6035   29.7694  -73.4544 O.2       10 UNK        -0.4839 
     25 CA        -71.4535   28.2941  -75.1535 C.3       9 UNK         0.0222 
     26 CB        -70.0241   27.7251  -75.2756 C.3       9 UNK        -0.1966 
     27 N         -72.4410   27.2217  -75.0074 N.am      9 UNK        -0.4218 
     28 C         -72.5863   26.3596  -73.9895 C.2       9 UNK         0.5020 
     29 O         -71.8243   26.2857  -73.0247 O.2       9 UNK        -0.5274 
     30 CA        -73.8156   25.4330  -74.0441 C.3       8 UNK         0.0270 
     31 CB        -74.9369   26.0193  -73.1777 C.3       8 UNK        -0.1976 
     32 N         -74.3299   25.2257  -75.4003 N.am      8 UNK        -0.4313 
     33 C         -73.6898   24.5501  -76.3650 C.2       8 UNK         0.5041 
     34 O         -72.6575   23.9034  -76.1850 O.2       8 UNK        -0.5577 
     35 CA        -74.2711   24.6716  -77.7813 C.3       7 UNK         0.0284 
     36 CB        -75.4186   23.6702  -77.9949 C.3       7 UNK        -0.1958 
     37 N         -74.7266   26.0404  -78.0522 N.am      7 UNK        -0.4454 
     38 C         -73.9048   27.0714  -78.3034 C.2       7 UNK         0.5089 
     39 O         -72.6835   26.9606  -78.4010 O.2       7 UNK        -0.5125 
     40 CA        -74.5353   28.4681  -78.4502 C.3       6 UNK         0.0408 
     41 CB        -74.8139   28.7734  -79.9302 C.3       6 UNK        -0.1791 
     42 N         -75.7721   28.6296  -77.6837 N.am      6 UNK        -0.4762 
     43 C         -75.8441   28.7767  -76.3515 C.2       6 UNK         0.5007 
     44 O         -74.8597   28.8408  -75.6158 O.2       6 UNK        -0.5032 
     45 CA        -77.2622   28.8128  -75.7421 C.3       5 UNK         0.0783 
     46 C46       -77.7953   30.2665  -75.7260 C.3       11 UNK        -0.0857 
     47 S47       -79.4904   30.3772  -75.0582 S.3       11 UNK        -0.2512 
     48 C48       -79.2664   31.4655  -73.6172 C.3       11 UNK         0.0225 
     49 N         -78.1798   27.9012  -76.4409 N.am      5 UNK        -0.4615 
     50 C         -78.0145   26.5796  -76.5576 C.2       4 UNK         0.5053 
     51 O         -77.0688   25.9634  -76.0636 O.2       4 UNK        -0.5105 
     52 CA        -78.9968   25.8636  -77.4870 C.3       4 UNK         0.0263 
     53 CB        -78.5106   26.0196  -78.9465 C.3       4 UNK        -0.1981 
     54 N         -79.1044   24.4548  -77.1066 N.am      4 UNK        -0.4224 
     55 C         -79.9215   23.5568  -77.6753 C.2       3 UNK         0.4895 
     56 O         -80.6977   23.8129  -78.5968 O.2       3 UNK        -0.5091 
     57 CA        -79.8981   22.1344  -77.1032 C.3       3 UNK         0.0250 
     58 CB        -78.5150   21.4732  -77.2468 C.3       3 UNK        -0.1996 
     59 N         -80.3162   22.1507  -75.7032 N.am      3 UNK        -0.4254 
     60 C         -81.5939   22.0976  -75.2982 C.2       2 UNK         0.5004 
     61 O         -82.5472   21.9539  -76.0650 O.2       2 UNK        -0.5226 
     62 CA        -81.8748   22.2011  -73.7877 C.3       2 UNK         0.0269 
     63 CB        -82.2136   20.8169  -73.2094 C.3       2 UNK        -0.1926 
     64 N         -80.7685   22.7761  -73.0202 N.am      2 UNK        -0.4687 
     65 C         -80.4454   24.0771  -72.9977 C.2       1 UNK         0.5165 
     66 O         -81.0735   24.9442  -73.6078 O.2       1 UNK        -0.5079 
     67 H67       -75.4736   22.6361  -73.9234 H         1 UNK         0.0900 
     68 H68       -76.5370   21.2292  -73.8486 H         1 UNK         0.0900 
     69 H69       -76.0022   22.0146  -72.3584 H         1 UNK         0.0900 
     70 H70       -77.7031   23.1419  -71.4499 H         1 UNK         0.2959 
     71 H71       -79.5440   24.3326  -71.1216 H         1 UNK         0.1079 
     72 H72       -79.5909   26.5995  -72.3065 H         1 UNK         0.0837 
     73 H73       -78.2557   26.0610  -73.2911 H         1 UNK         0.0837 
     74 H74       -79.4833   27.6791  -70.2357 H         1 UNK         0.0685 
     75 H75       -78.1184   27.8372  -69.1661 H         1 UNK         0.0685 
     76 H76       -79.6519   29.1253  -72.2617 H         1 UNK         0.1434 
     77 H77       -76.9697   32.4576  -72.5456 H         1 UNK         0.1329 
     78 H78       -76.2731   29.3789  -69.6413 H         1 UNK         0.1335 
     79 H79       -74.9376   32.5188  -71.2810 H         1 UNK         0.0680 
     80 H80       -75.6562   32.4187  -69.7074 H         1 UNK         0.0680 
     81 H81       -73.0733   29.1219  -71.3205 H         1 UNK         0.1032 
     82 H82       -71.8683   30.3444  -71.1083 H         1 UNK         0.1032 
     83 H83       -74.3272   30.8030  -72.8616 H         1 UNK         0.0461 
     84 H84       -72.2180   33.5026  -74.4900 H         1 UNK         0.3453 
     85 H85       -72.7790   31.9497  -75.0599 H         1 UNK         0.3453 
     86 H86       -73.6085   29.3935  -74.3646 H         1 UNK         0.2984 
     87 H87       -71.6887   28.7954  -76.0935 H         1 UNK         0.0554 
     88 H88       -69.9599   26.9876  -76.0757 H         1 UNK         0.0847 
     89 H89       -69.6948   27.2485  -74.3519 H         1 UNK         0.0847 
     90 H90       -69.3086   28.5156  -75.5050 H         1 UNK         0.0847 
     91 H91       -73.1718   27.2191  -75.7052 H         1 UNK         0.3141 
     92 H92       -73.5260   24.4632  -73.6348 H         1 UNK         0.0743 
     93 H93       -74.6164   26.1275  -72.1407 H         1 UNK         0.0784 
     94 H94       -75.8129   25.3745  -73.1810 H         1 UNK         0.0784 
     95 H95       -75.2502   27.0041  -73.5262 H         1 UNK         0.0784 
     96 H96       -75.2329   25.6417  -75.6201 H         1 UNK         0.3213 
     97 H97       -73.4766   24.4266  -78.4900 H         1 UNK         0.0855 
     98 H98       -76.2428   23.8385  -77.3030 H         1 UNK         0.0814 
     99 H99       -75.0730   22.6477  -77.8380 H         1 UNK         0.0814 
    100 H100      -75.8120   23.7246  -79.0097 H         1 UNK         0.0814 
    101 H101      -75.7103   26.2260  -77.9214 H         1 UNK         0.3105 
    102 H102      -73.8095   29.1978  -78.0843 H         1 UNK         0.0547 
    103 H103      -73.9022   28.6890  -80.5236 H         1 UNK         0.0837 
    104 H104      -75.5441   28.0846  -80.3568 H         1 UNK         0.0837 
    105 H105      -75.1902   29.7878  -80.0627 H         1 UNK         0.0837 
    106 H106      -76.6362   28.6060  -78.2053 H         1 UNK         0.3020 
    107 H107      -77.1776   28.4644  -74.7096 H         1 UNK         0.1245 
    108 H108      -77.1302   30.9077  -75.1440 H         1 UNK         0.0781 
    109 H109      -77.8106   30.6847  -76.7344 H         1 UNK         0.0781 
    110 H110      -80.2459   31.6876  -73.1915 H         1 UNK         0.0836 
    111 H111      -78.8587   32.4196  -73.9551 H         1 UNK         0.0836 
    112 H112      -78.9850   28.3360  -76.8683 H         1 UNK         0.3022 
    113 H113      -79.9809   26.3229  -77.3745 H         1 UNK         0.0747 
    114 H114      -79.2481   25.6586  -79.6623 H         1 UNK         0.0793 
    115 H115      -78.3276   27.0651  -79.1974 H         1 UNK         0.0793 
    116 H116      -77.5844   25.4735  -79.1240 H         1 UNK         0.0793 
    117 H117      -78.5307   24.1808  -76.3086 H         1 UNK         0.3047 
    118 H118      -80.6029   21.5328  -77.6818 H         1 UNK         0.0822 
    119 H119      -78.5404   20.4355  -76.9142 H         1 UNK         0.0807 
    120 H120      -77.7442   21.9845  -76.6721 H         1 UNK         0.0807 
    121 H121      -78.1929   21.4708  -78.2889 H         1 UNK         0.0807 
    122 H122      -79.5948   22.3658  -75.0237 H         1 UNK         0.2946 
    123 H123      -82.7489   22.8459  -73.6682 H         1 UNK         0.1144 
    124 H124      -83.0583   20.3696  -73.7356 H         1 UNK         0.0793 
    125 H125      -82.4895   20.8825  -72.1567 H         1 UNK         0.0793 
    126 H126      -81.3738   20.1263  -73.2957 H         1 UNK         0.0793 
    127 H127      -80.1887   22.1314  -72.5016 H         1 UNK         0.2896 
@<TRIPOS>BOND
     1    1    2 1    
     2    1   67 1    
     3    1   68 1    
     4    1   69 1    
     5    2    3 2    
     6    2    4 am   BACKBONE|DICT|INTERRES
     7    4    5 1    
     8    4   70 1    
     9    5    6 1    
    10    5   65 1    
    11    5   71 1    
    12    6    7 1    
    13    6   72 1    
    14    6   73 1    
    15    7    8 1    
    16    8    9 1    
    17    8   74 1    
    18    8   75 1    
    19    9   10 ar   
    20    9   14 ar   
    21   10   11 ar   
    22   10   76 1    
    23   11   12 ar   
    24   11   48 1    
    25   12   13 ar   
    26   12   77 1    
    27   13   14 ar   
    28   13   15 1    
    29   14   78 1    
    30   15   16 1    
    31   15   79 1    
    32   15   80 1    
    33   16   17 1    
    34   17   18 1    
    35   17   81 1    
    36   17   82 1    
    37   18   19 1    
    38   18   22 1    
    39   18   83 1    
    40   19   20 am   BACKBONE|DICT|INTERRES
    41   19   21 2    
    42   20   84 1    
    43   20   85 1    
    44   22   23 am   BACKBONE|DICT|INTERRES
    45   22   86 1    
    46   23   24 2    
    47   23   25 1    
    48   25   26 1    
    49   25   27 1    
    50   25   87 1    
    51   26   88 1    
    52   26   89 1    
    53   26   90 1    
    54   27   28 am   BACKBONE|DICT|INTERRES
    55   27   91 1    
    56   28   29 2    
    57   28   30 1    
    58   30   31 1    
    59   30   32 1    
    60   30   92 1    
    61   31   93 1    
    62   31   94 1    
    63   31   95 1    
    64   32   33 am   BACKBONE|DICT|INTERRES
    65   32   96 1    
    66   33   34 2    
    67   33   35 1    
    68   35   36 1    
    69   35   37 1    
    70   35   97 1    
    71   36   98 1    
    72   36   99 1    
    73   36  100 1    
    74   37   38 am   BACKBONE|DICT|INTERRES
    75   37  101 1    
    76   38   39 2    
    77   38   40 1    
    78   40   41 1    
    79   40   42 1    
    80   40  102 1    
    81   41  103 1    
    82   41  104 1    
    83   41  105 1    
    84   42   43 am   BACKBONE|DICT|INTERRES
    85   42  106 1    
    86   43   44 2    
    87   43   45 1    
    88   45   46 1    
    89   45   49 1    
    90   45  107 1    
    91   46   47 1    
    92   46  108 1    
    93   46  109 1    
    94   47   48 1    
    95   48  110 1    
    96   48  111 1    
    97   49   50 am   BACKBONE|DICT|INTERRES
    98   49  112 1    
    99   50   51 2    
   100   50   52 1    
   101   52   53 1    
   102   52   54 1    
   103   52  113 1    
   104   53  114 1    
   105   53  115 1    
   106   53  116 1    
   107   54   55 am   BACKBONE|DICT|INTERRES
   108   54  117 1    
   109   55   56 2    
   110   55   57 1    
   111   57   58 1    
   112   57   59 1    
   113   57  118 1    
   114   58  119 1    
   115   58  120 1    
   116   58  121 1    
   117   59   60 am   BACKBONE|DICT|INTERRES
   118   59  122 1    
   119   60   61 2    
   120   60   62 1    
   121   62   63 1    
   122   62   64 1    
   123   62  123 1    
   124   63  124 1    
   125   63  125 1    
   126   63  126 1    
   127   64   65 am   BACKBONE|DICT|INTERRES
   128   64  127 1    
   129   65   66 2    
@<TRIPOS>SUBSTRUCTURE
     1 UNK         1 GROUP             0       ****    0 ROOT    
