@<TRIPOS>MOLECULE
3R135
127   129    1
SMALL
USER_CHARGES


@<TRIPOS>ATOM
      1 CA        -84.3594   29.8833  -76.7941 C.3       0 UNK        -0.1998 
      2 C         -83.0415   29.1550  -76.5757 C.2       0 UNK         0.4909 
      3 O         -82.3762   28.7883  -77.5454 O.2       0 UNK        -0.5240 
      4 N         -82.6550   28.9518  -75.3102 N.am      1 UNK        -0.4739 
      5 CA        -81.4401   28.2314  -74.9117 C.3       1 UNK         0.0864 
      6 C6        -81.0821   28.4785  -73.4258 C.3       11 UNK        -0.0881 
      7 S7        -80.8134   30.2405  -73.0522 S.3       11 UNK        -0.2682 
      8 C8        -80.5039   30.1593  -71.2617 C.3       11 UNK         0.0289 
      9 C9        -79.0838   29.7084  -70.9526 C.ar      11 UNK        -0.0687 
     10 C10       -78.8128   28.3823  -70.5982 C.ar      11 UNK        -0.0823 
     11 C11       -77.5103   27.9856  -70.2738 C.ar      11 UNK        -0.0830 
     12 C12       -76.4756   28.9288  -70.3158 C.ar      11 UNK        -0.1021 
     13 C13       -76.7346   30.2545  -70.6769 C.ar      11 UNK        -0.0753 
     14 C14       -78.0405   30.6369  -70.9926 C.ar      11 UNK        -0.0933 
     15 C15       -75.6225   31.2927  -70.6870 C.3       11 UNK         0.0166 
     16 S16       -74.9544   31.5543  -72.3584 S.3       11 UNK        -0.2615 
     17 C17       -73.6424   30.2894  -72.4090 C.3       11 UNK        -0.0865 
     18 CA        -72.9328   30.2066  -73.7960 C.3       10 UNK         0.0862 
     19 C         -71.8185   31.2765  -74.0206 C.2       10 UNK         0.5551 
     20 N         -71.9800   32.4803  -73.4894 N.am      10 UNK        -0.7319 
     21 O         -70.8290   31.0446  -74.7134 O.2       10 UNK        -0.5018 
     22 N         -72.4974   28.8345  -74.0995 N.am      10 UNK        -0.4509 
     23 C         -71.5780   28.1378  -73.4168 C.2       10 UNK         0.4899 
     24 O         -70.9897   28.5697  -72.4247 O.2       10 UNK        -0.4839 
     25 CA        -71.2766   26.7036  -73.8841 C.3       9 UNK         0.0222 
     26 CB        -71.7457   25.6938  -72.8218 C.3       9 UNK        -0.1966 
     27 N         -71.9099   26.3663  -75.1622 N.am      9 UNK        -0.4218 
     28 C         -71.3321   26.4939  -76.3634 C.2       9 UNK         0.5020 
     29 O         -70.2081   26.9676  -76.5334 O.2       9 UNK        -0.5274 
     30 CA        -72.1246   25.9999  -77.5825 C.3       8 UNK         0.0270 
     31 CB        -72.0063   24.4719  -77.7196 C.3       8 UNK        -0.1976 
     32 N         -73.5418   26.3701  -77.5254 N.am      8 UNK        -0.4313 
     33 C         -74.2155   26.9591  -78.5239 C.2       8 UNK         0.5041 
     34 O         -73.7006   27.3036  -79.5891 O.2       8 UNK        -0.5577 
     35 CA        -75.7289   27.1856  -78.3307 C.3       7 UNK         0.0284 
     36 CB        -76.5066   26.0431  -78.9949 C.3       7 UNK        -0.1958 
     37 N         -76.1439   27.2937  -76.9295 N.am      7 UNK        -0.4454 
     38 C         -75.7833   28.2995  -76.1214 C.2       7 UNK         0.5089 
     39 O         -75.1164   29.2641  -76.4946 O.2       7 UNK        -0.5125 
     40 CA        -76.2006   28.2204  -74.6424 C.3       6 UNK         0.0408 
     41 CB        -77.4764   29.0409  -74.4180 C.3       6 UNK        -0.1791 
     42 N         -76.3811   26.8825  -74.0640 N.am      6 UNK        -0.4762 
     43 C         -75.5507   25.8331  -74.1545 C.2       6 UNK         0.5007 
     44 O         -74.5769   25.7885  -74.9080 O.2       6 UNK        -0.5032 
     45 CA        -75.8221   24.6277  -73.2434 C.3       5 UNK         0.0783 
     46 C46       -76.7717   24.8877  -72.0410 C.3       11 UNK        -0.0857 
     47 S47       -75.8879   25.7406  -70.6930 S.3       11 UNK        -0.2512 
     48 C48       -77.2395   26.5643  -69.7909 C.3       11 UNK         0.0225 
     49 N         -76.2462   23.4998  -74.0694 N.am      5 UNK        -0.4615 
     50 C         -75.8029   22.2451  -73.9062 C.2       4 UNK         0.5053 
     51 O         -74.9959   21.9229  -73.0333 O.2       4 UNK        -0.5105 
     52 CA        -76.3467   21.1438  -74.8366 C.3       4 UNK         0.0263 
     53 CB        -77.0780   20.0618  -74.0221 C.3       4 UNK        -0.1981 
     54 N         -77.2583   21.6418  -75.8653 N.am      4 UNK        -0.4224 
     55 C         -76.8927   22.1550  -77.0472 C.2       3 UNK         0.4895 
     56 O         -75.7270   22.2560  -77.4279 O.2       3 UNK        -0.5091 
     57 CA        -78.0369   22.6572  -77.9459 C.3       3 UNK         0.0250 
     58 CB        -78.5417   21.5235  -78.8530 C.3       3 UNK        -0.1996 
     59 N         -79.1633   23.2130  -77.1878 N.am      3 UNK        -0.4254 
     60 C         -79.1023   24.2858  -76.3869 C.2       2 UNK         0.5004 
     61 O         -78.0877   24.9675  -76.2034 O.2       2 UNK        -0.5226 
     62 CA        -80.3729   24.6010  -75.5978 C.3       2 UNK         0.0269 
     63 CB        -80.3629   23.8578  -74.2483 C.3       2 UNK        -0.1926 
     64 N         -80.4464   26.0397  -75.3713 N.am      2 UNK        -0.4687 
     65 C         -81.5809   26.7173  -75.1659 C.2       1 UNK         0.5165 
     66 O         -82.6942   26.1852  -75.1248 O.2       1 UNK        -0.5079 
     67 H67       -85.0513   29.2484  -77.3469 H         1 UNK         0.0900 
     68 H68       -84.1946   30.7925  -77.3716 H         1 UNK         0.0900 
     69 H69       -84.8325   30.1610  -75.8523 H         1 UNK         0.0900 
     70 H70       -83.2417   29.2676  -74.5515 H         1 UNK         0.2959 
     71 H71       -80.6228   28.6008  -75.5344 H         1 UNK         0.1079 
     72 H72       -80.1740   27.9360  -73.1564 H         1 UNK         0.0837 
     73 H73       -81.8716   28.1001  -72.7731 H         1 UNK         0.0837 
     74 H74       -81.2331   29.5004  -70.7876 H         1 UNK         0.0685 
     75 H75       -80.6700   31.1492  -70.8342 H         1 UNK         0.0685 
     76 H76       -79.6225   27.6671  -70.5490 H         1 UNK         0.1434 
     77 H77       -75.4705   28.6333  -70.0476 H         1 UNK         0.1329 
     78 H78       -78.2469   31.6629  -71.2655 H         1 UNK         0.1335 
     79 H79       -74.8215   31.0094  -70.0023 H         1 UNK         0.0680 
     80 H80       -76.0116   32.2424  -70.3166 H         1 UNK         0.0680 
     81 H81       -74.1120   29.3344  -72.1685 H         1 UNK         0.1032 
     82 H82       -72.9204   30.4698  -71.6102 H         1 UNK         0.1032 
     83 H83       -73.6740   30.4219  -74.5652 H         1 UNK         0.0461 
     84 H84       -72.8077   32.6881  -72.9500 H         1 UNK         0.3453 
     85 H85       -71.2794   33.1891  -73.6400 H         1 UNK         0.3453 
     86 H86       -72.8895   28.4224  -74.9327 H         1 UNK         0.2984 
     87 H87       -70.1927   26.6110  -73.9798 H         1 UNK         0.0554 
     88 H88       -71.5586   24.6667  -73.1355 H         1 UNK         0.0847 
     89 H89       -72.8106   25.7943  -72.6113 H         1 UNK         0.0847 
     90 H90       -71.2161   25.8447  -71.8802 H         1 UNK         0.0847 
     91 H91       -72.8581   25.9978  -75.1019 H         1 UNK         0.3141 
     92 H92       -71.6541   26.4510  -78.4588 H         1 UNK         0.0743 
     93 H93       -72.4802   23.9527  -76.8853 H         1 UNK         0.0784 
     94 H94       -72.4764   24.1216  -78.6387 H         1 UNK         0.0784 
     95 H95       -70.9613   24.1600  -77.7505 H         1 UNK         0.0784 
     96 H96       -74.0490   26.1336  -76.6759 H         1 UNK         0.3213 
     97 H97       -75.9927   28.1199  -78.8310 H         1 UNK         0.0855 
     98 H98       -76.1966   25.0837  -78.5822 H         1 UNK         0.0814 
     99 H99       -76.3168   26.0125  -80.0686 H         1 UNK         0.0814 
    100 H100      -77.5826   26.1478  -78.8543 H         1 UNK         0.0814 
    101 H101      -76.6913   26.5283  -76.5481 H         1 UNK         0.3105 
    102 H102      -75.4048   28.6889  -74.0657 H         1 UNK         0.0547 
    103 H103      -77.3428   30.0725  -74.7469 H         1 UNK         0.0837 
    104 H104      -78.3198   28.6282  -74.9689 H         1 UNK         0.0837 
    105 H105      -77.7435   29.0767  -73.3638 H         1 UNK         0.0837 
    106 H106      -77.1420   26.8023  -73.4066 H         1 UNK         0.3020 
    107 H107      -74.8389   24.3842  -72.8334 H         1 UNK         0.1245 
    108 H108      -77.1149   23.9360  -71.6318 H         1 UNK         0.0781 
    109 H109      -77.6778   25.4255  -72.3232 H         1 UNK         0.0781 
    110 H110      -76.9663   26.6122  -68.7359 H         1 UNK         0.0836 
    111 H111      -78.1389   25.9485  -69.8409 H         1 UNK         0.0836 
    112 H112      -76.8527   23.7240  -74.8489 H         1 UNK         0.3022 
    113 H113      -75.4856   20.6794  -75.3221 H         1 UNK         0.0747 
    114 H114      -77.4278   19.2515  -74.6622 H         1 UNK         0.0793 
    115 H115      -76.4175   19.6174  -73.2763 H         1 UNK         0.0793 
    116 H116      -77.9402   20.4686  -73.4919 H         1 UNK         0.0793 
    117 H117      -78.2437   21.6002  -75.6509 H         1 UNK         0.3047 
    118 H118      -77.6454   23.4437  -78.5885 H         1 UNK         0.0822 
    119 H119      -79.2977   21.8810  -79.5524 H         1 UNK         0.0807 
    120 H120      -78.9758   20.7047  -78.2776 H         1 UNK         0.0807 
    121 H121      -77.7263   21.1075  -79.4467 H         1 UNK         0.0807 
    122 H122      -80.0406   22.7185  -77.2694 H         1 UNK         0.2946 
    123 H123      -81.2374   24.2835  -76.1862 H         1 UNK         0.1144 
    124 H124      -80.3114   22.7780  -74.3925 H         1 UNK         0.0793 
    125 H125      -81.2681   24.0608  -73.6758 H         1 UNK         0.0793 
    126 H126      -79.5090   24.1473  -73.6346 H         1 UNK         0.0793 
    127 H127      -79.5580   26.5189  -75.4379 H         1 UNK         0.2896 
@<TRIPOS>BOND
     1    1    2 1    
     2    1   67 1    
     3    1   68 1    
     4    1   69 1    
     5    2    3 2    
     6    2    4 am   BACKBONE|DICT|INTERRES
     7    4    5 1    
     8    4   70 1    
     9    5    6 1    
    10    5   65 1    
    11    5   71 1    
    12    6    7 1    
    13    6   72 1    
    14    6   73 1    
    15    7    8 1    
    16    8    9 1    
    17    8   74 1    
    18    8   75 1    
    19    9   10 ar   
    20    9   14 ar   
    21   10   11 ar   
    22   10   76 1    
    23   11   12 ar   
    24   11   48 1    
    25   12   13 ar   
    26   12   77 1    
    27   13   14 ar   
    28   13   15 1    
    29   14   78 1    
    30   15   16 1    
    31   15   79 1    
    32   15   80 1    
    33   16   17 1    
    34   17   18 1    
    35   17   81 1    
    36   17   82 1    
    37   18   19 1    
    38   18   22 1    
    39   18   83 1    
    40   19   20 am   BACKBONE|DICT|INTERRES
    41   19   21 2    
    42   20   84 1    
    43   20   85 1    
    44   22   23 am   BACKBONE|DICT|INTERRES
    45   22   86 1    
    46   23   24 2    
    47   23   25 1    
    48   25   26 1    
    49   25   27 1    
    50   25   87 1    
    51   26   88 1    
    52   26   89 1    
    53   26   90 1    
    54   27   28 am   BACKBONE|DICT|INTERRES
    55   27   91 1    
    56   28   29 2    
    57   28   30 1    
    58   30   31 1    
    59   30   32 1    
    60   30   92 1    
    61   31   93 1    
    62   31   94 1    
    63   31   95 1    
    64   32   33 am   BACKBONE|DICT|INTERRES
    65   32   96 1    
    66   33   34 2    
    67   33   35 1    
    68   35   36 1    
    69   35   37 1    
    70   35   97 1    
    71   36   98 1    
    72   36   99 1    
    73   36  100 1    
    74   37   38 am   BACKBONE|DICT|INTERRES
    75   37  101 1    
    76   38   39 2    
    77   38   40 1    
    78   40   41 1    
    79   40   42 1    
    80   40  102 1    
    81   41  103 1    
    82   41  104 1    
    83   41  105 1    
    84   42   43 am   BACKBONE|DICT|INTERRES
    85   42  106 1    
    86   43   44 2    
    87   43   45 1    
    88   45   46 1    
    89   45   49 1    
    90   45  107 1    
    91   46   47 1    
    92   46  108 1    
    93   46  109 1    
    94   47   48 1    
    95   48  110 1    
    96   48  111 1    
    97   49   50 am   BACKBONE|DICT|INTERRES
    98   49  112 1    
    99   50   51 2    
   100   50   52 1    
   101   52   53 1    
   102   52   54 1    
   103   52  113 1    
   104   53  114 1    
   105   53  115 1    
   106   53  116 1    
   107   54   55 am   BACKBONE|DICT|INTERRES
   108   54  117 1    
   109   55   56 2    
   110   55   57 1    
   111   57   58 1    
   112   57   59 1    
   113   57  118 1    
   114   58  119 1    
   115   58  120 1    
   116   58  121 1    
   117   59   60 am   BACKBONE|DICT|INTERRES
   118   59  122 1    
   119   60   61 2    
   120   60   62 1    
   121   62   63 1    
   122   62   64 1    
   123   62  123 1    
   124   63  124 1    
   125   63  125 1    
   126   63  126 1    
   127   64   65 am   BACKBONE|DICT|INTERRES
   128   64  127 1    
   129   65   66 2    
@<TRIPOS>SUBSTRUCTURE
     1 UNK         1 GROUP             0       ****    0 ROOT    
