@<TRIPOS>MOLECULE
3R135
127   129    1
SMALL
USER_CHARGES


@<TRIPOS>ATOM
      1 CA        -84.7165   29.8140  -72.3082 C.3       0 UNK        -0.1998 
      2 C         -83.4289   29.1545  -72.7778 C.2       0 UNK         0.4909 
      3 O         -83.4757   28.0613  -73.3428 O.2       0 UNK        -0.5240 
      4 N         -82.2850   29.8212  -72.5645 N.am      1 UNK        -0.4739 
      5 CA        -80.9054   29.4024  -72.8774 C.3       1 UNK         0.0864 
      6 C6        -80.4766   28.0724  -72.2018 C.3       11 UNK        -0.0881 
      7 S7        -80.5918   28.1617  -70.3830 S.3       11 UNK        -0.2682 
      8 C8        -79.5727   26.7319  -69.8757 C.3       11 UNK         0.0289 
      9 C9        -78.0626   26.8590  -70.1015 C.ar      11 UNK        -0.0687 
     10 C10       -77.2713   25.7159  -69.9417 C.ar      11 UNK        -0.0823 
     11 C11       -75.8838   25.7717  -70.1085 C.ar      11 UNK        -0.0830 
     12 C12       -75.2814   26.9865  -70.4439 C.ar      11 UNK        -0.1021 
     13 C13       -76.0543   28.1382  -70.6072 C.ar      11 UNK        -0.0753 
     14 C14       -77.4387   28.0713  -70.4285 C.ar      11 UNK        -0.0933 
     15 C15       -75.3903   29.4590  -70.9667 C.3       11 UNK         0.0166 
     16 S16       -74.7706   29.4598  -72.6760 S.3       11 UNK        -0.2615 
     17 C17       -76.3146   29.2154  -73.6212 C.3       11 UNK        -0.0865 
     18 CA        -76.2037   29.6364  -75.1093 C.3       10 UNK         0.0862 
     19 C         -76.1964   31.1807  -75.2867 C.2       10 UNK         0.5551 
     20 N         -77.3641   31.8020  -75.1906 N.am      10 UNK        -0.7319 
     21 O         -75.1601   31.8145  -75.4769 O.2       10 UNK        -0.5018 
     22 N         -75.1092   28.9260  -75.7816 N.am      10 UNK        -0.4509 
     23 C         -74.8712   28.9146  -77.0983 C.2       10 UNK         0.4899 
     24 O         -75.5715   29.5020  -77.9233 O.2       10 UNK        -0.4839 
     25 CA        -73.7068   28.0373  -77.5951 C.3       9 UNK         0.0222 
     26 CB        -72.8640   28.7295  -78.6863 C.3       9 UNK        -0.1966 
     27 N         -72.8707   27.4777  -76.5244 N.am      9 UNK        -0.4218 
     28 C         -71.9567   28.0929  -75.7574 C.2       9 UNK         0.5020 
     29 O         -71.6798   29.2898  -75.8305 O.2       9 UNK        -0.5274 
     30 CA        -71.2212   27.2149  -74.7284 C.3       8 UNK         0.0270 
     31 CB        -71.9194   27.2779  -73.3597 C.3       8 UNK        -0.1976 
     32 N         -71.1418   25.8185  -75.1654 N.am      8 UNK        -0.4313 
     33 C         -70.1746   25.3198  -75.9486 C.2       8 UNK         0.5041 
     34 O         -69.1830   25.9577  -76.3046 O.2       8 UNK        -0.5577 
     35 CA        -70.3428   23.8648  -76.4268 C.3       7 UNK         0.0284 
     36 CB        -69.7029   22.8910  -75.4240 C.3       7 UNK        -0.1958 
     37 N         -71.7433   23.4899  -76.6436 N.am      7 UNK        -0.4454 
     38 C         -72.5226   23.9827  -77.6173 C.2       7 UNK         0.5089 
     39 O         -72.1194   24.7402  -78.4990 O.2       7 UNK        -0.5125 
     40 CA        -74.0152   23.6002  -77.5842 C.3       6 UNK         0.0408 
     41 CB        -74.2930   22.4373  -78.5491 C.3       6 UNK        -0.1791 
     42 N         -74.5388   23.2621  -76.2532 N.am      6 UNK        -0.4762 
     43 C         -74.5429   24.0817  -75.1927 C.2       6 UNK         0.5007 
     44 O         -74.0427   25.2082  -75.2023 O.2       6 UNK        -0.5032 
     45 CA        -75.2593   23.5800  -73.9328 C.3       5 UNK         0.0783 
     46 C46       -74.5427   24.0318  -72.6368 C.3       11 UNK        -0.0857 
     47 S47       -75.3000   23.2611  -71.1676 S.3       11 UNK        -0.2512 
     48 C48       -75.0314   24.5290  -69.8898 C.3       11 UNK         0.0225 
     49 N         -76.6186   24.1014  -74.0204 N.am      5 UNK        -0.4615 
     50 C         -77.7156   23.3651  -74.2255 C.2       4 UNK         0.5053 
     51 O         -77.7292   22.1341  -74.2488 O.2       4 UNK        -0.5105 
     52 CA        -79.0169   24.1437  -74.4872 C.3       4 UNK         0.0263 
     53 CB        -79.7002   24.5055  -73.1595 C.3       4 UNK        -0.1981 
     54 N         -78.8104   25.3632  -75.2775 N.am      4 UNK        -0.4224 
     55 C         -78.3457   25.3955  -76.5363 C.2       3 UNK         0.4895 
     56 O         -78.0683   24.3891  -77.1906 O.2       3 UNK        -0.5091 
     57 CA        -78.1414   26.7946  -77.1481 C.3       3 UNK         0.0250 
     58 CB        -77.8780   26.7588  -78.6683 C.3       3 UNK        -0.1996 
     59 N         -79.2186   27.7415  -76.8249 N.am      3 UNK        -0.4254 
     60 C         -80.5216   27.6286  -77.1213 C.2       2 UNK         0.5004 
     61 O         -81.0182   26.6592  -77.6976 O.2       2 UNK        -0.5226 
     62 CA        -81.4162   28.8004  -76.6729 C.3       2 UNK         0.0269 
     63 CB        -82.8410   28.7132  -77.2514 C.3       2 UNK        -0.1926 
     64 N         -81.5108   28.8837  -75.2145 N.am      2 UNK        -0.4687 
     65 C         -80.5867   29.3856  -74.3879 C.2       1 UNK         0.5165 
     66 O         -79.5089   29.8356  -74.7811 O.2       1 UNK        -0.5079 
     67 H67       -85.3853   29.9751  -73.1533 H         1 UNK         0.0900 
     68 H68       -85.2243   29.1720  -71.5890 H         1 UNK         0.0900 
     69 H69       -84.5326   30.7769  -71.8321 H         1 UNK         0.0900 
     70 H70       -82.3451   30.7261  -72.1182 H         1 UNK         0.2959 
     71 H71       -80.2713   30.1883  -72.4629 H         1 UNK         0.1079 
     72 H72       -79.4480   27.8261  -72.4711 H         1 UNK         0.0837 
     73 H73       -81.0905   27.2404  -72.5485 H         1 UNK         0.0837 
     74 H74       -79.7403   26.5653  -68.8109 H         1 UNK         0.0685 
     75 H75       -79.9476   25.8434  -70.3853 H         1 UNK         0.0685 
     76 H76       -77.7350   24.7749  -69.6776 H         1 UNK         0.1434 
     77 H77       -74.2094   27.0419  -70.5769 H         1 UNK         0.1329 
     78 H78       -78.0206   28.9741  -70.5424 H         1 UNK         0.1335 
     79 H79       -74.5554   29.6392  -70.2883 H         1 UNK         0.0680 
     80 H80       -76.0795   30.2945  -70.8337 H         1 UNK         0.0680 
     81 H81       -77.1308   29.7504  -73.1316 H         1 UNK         0.1032 
     82 H82       -76.5807   28.1592  -73.5594 H         1 UNK         0.1032 
     83 H83       -77.1092   29.2879  -75.6043 H         1 UNK         0.0461 
     84 H84       -77.4050   32.8039  -75.2882 H         1 UNK         0.3453 
     85 H85       -78.2132   31.2680  -75.0357 H         1 UNK         0.3453 
     86 H86       -74.4572   28.4540  -75.1733 H         1 UNK         0.2984 
     87 H87       -74.1792   27.1715  -78.0616 H         1 UNK         0.0554 
     88 H88       -73.4769   28.9782  -79.5534 H         1 UNK         0.0847 
     89 H89       -72.0595   28.0818  -79.0352 H         1 UNK         0.0847 
     90 H90       -72.4199   29.6591  -78.3300 H         1 UNK         0.0847 
     91 H91       -73.0847   26.5146  -76.2850 H         1 UNK         0.3141 
     92 H92       -70.2114   27.6141  -74.6101 H         1 UNK         0.0743 
     93 H93       -71.9354   28.3007  -72.9814 H         1 UNK         0.0784 
     94 H94       -72.9528   26.9338  -73.4107 H         1 UNK         0.0784 
     95 H95       -71.3997   26.6691  -72.6198 H         1 UNK         0.0784 
     96 H96       -71.9439   25.2380  -74.9549 H         1 UNK         0.3213 
     97 H97       -69.8168   23.7690  -77.3795 H         1 UNK         0.0855 
     98 H98       -70.1966   22.9256  -74.4521 H         1 UNK         0.0814 
     99 H99       -68.6514   23.1339  -75.2633 H         1 UNK         0.0814 
    100 H100      -69.7435   21.8636  -75.7865 H         1 UNK         0.0814 
    101 H101      -72.1581   22.8507  -75.9813 H         1 UNK         0.3105 
    102 H102      -74.5747   24.4697  -77.9361 H         1 UNK         0.0547 
    103 H103      -73.9387   22.6703  -79.5543 H         1 UNK         0.0837 
    104 H104      -75.3610   22.2320  -78.6257 H         1 UNK         0.0837 
    105 H105      -73.7943   21.5205  -78.2324 H         1 UNK         0.0837 
    106 H106      -75.0006   22.3666  -76.1724 H         1 UNK         0.3020 
    107 H107      -75.2581   22.4875  -73.9542 H         1 UNK         0.1245 
    108 H108      -74.5693   25.1185  -72.5407 H         1 UNK         0.0781 
    109 H109      -73.4885   23.7492  -72.6568 H         1 UNK         0.0781 
    110 H110      -73.9706   24.7821  -69.8540 H         1 UNK         0.0836 
    111 H111      -75.2734   24.1011  -68.9159 H         1 UNK         0.0836 
    112 H112      -76.6992   25.1066  -74.0407 H         1 UNK         0.3022 
    113 H113      -79.6850   23.4903  -75.0523 H         1 UNK         0.0747 
    114 H114      -79.8640   23.6160  -72.5495 H         1 UNK         0.0793 
    115 H115      -79.0938   25.1950  -72.5716 H         1 UNK         0.0793 
    116 H116      -80.6749   24.9639  -73.3266 H         1 UNK         0.0793 
    117 H117      -79.0414   26.2381  -74.8327 H         1 UNK         0.3047 
    118 H118      -77.2391   27.1808  -76.6766 H         1 UNK         0.0822 
    119 H119      -77.6865   27.7580  -79.0596 H         1 UNK         0.0807 
    120 H120      -78.7221   26.3382  -79.2157 H         1 UNK         0.0807 
    121 H121      -77.0028   26.1504  -78.9002 H         1 UNK         0.0807 
    122 H122      -78.9475   28.5674  -76.3023 H         1 UNK         0.2946 
    123 H123      -80.9607   29.7192  -77.0503 H         1 UNK         0.1144 
    124 H124      -83.3696   27.8293  -76.8919 H         1 UNK         0.0793 
    125 H125      -82.8191   28.6617  -78.3408 H         1 UNK         0.0793 
    126 H126      -83.4320   29.5886  -76.9814 H         1 UNK         0.0793 
    127 H127      -82.3471   28.4976  -74.7825 H         1 UNK         0.2896 
@<TRIPOS>BOND
     1    1    2 1    
     2    1   67 1    
     3    1   68 1    
     4    1   69 1    
     5    2    3 2    
     6    2    4 am   BACKBONE|DICT|INTERRES
     7    4    5 1    
     8    4   70 1    
     9    5    6 1    
    10    5   65 1    
    11    5   71 1    
    12    6    7 1    
    13    6   72 1    
    14    6   73 1    
    15    7    8 1    
    16    8    9 1    
    17    8   74 1    
    18    8   75 1    
    19    9   10 ar   
    20    9   14 ar   
    21   10   11 ar   
    22   10   76 1    
    23   11   12 ar   
    24   11   48 1    
    25   12   13 ar   
    26   12   77 1    
    27   13   14 ar   
    28   13   15 1    
    29   14   78 1    
    30   15   16 1    
    31   15   79 1    
    32   15   80 1    
    33   16   17 1    
    34   17   18 1    
    35   17   81 1    
    36   17   82 1    
    37   18   19 1    
    38   18   22 1    
    39   18   83 1    
    40   19   20 am   BACKBONE|DICT|INTERRES
    41   19   21 2    
    42   20   84 1    
    43   20   85 1    
    44   22   23 am   BACKBONE|DICT|INTERRES
    45   22   86 1    
    46   23   24 2    
    47   23   25 1    
    48   25   26 1    
    49   25   27 1    
    50   25   87 1    
    51   26   88 1    
    52   26   89 1    
    53   26   90 1    
    54   27   28 am   BACKBONE|DICT|INTERRES
    55   27   91 1    
    56   28   29 2    
    57   28   30 1    
    58   30   31 1    
    59   30   32 1    
    60   30   92 1    
    61   31   93 1    
    62   31   94 1    
    63   31   95 1    
    64   32   33 am   BACKBONE|DICT|INTERRES
    65   32   96 1    
    66   33   34 2    
    67   33   35 1    
    68   35   36 1    
    69   35   37 1    
    70   35   97 1    
    71   36   98 1    
    72   36   99 1    
    73   36  100 1    
    74   37   38 am   BACKBONE|DICT|INTERRES
    75   37  101 1    
    76   38   39 2    
    77   38   40 1    
    78   40   41 1    
    79   40   42 1    
    80   40  102 1    
    81   41  103 1    
    82   41  104 1    
    83   41  105 1    
    84   42   43 am   BACKBONE|DICT|INTERRES
    85   42  106 1    
    86   43   44 2    
    87   43   45 1    
    88   45   46 1    
    89   45   49 1    
    90   45  107 1    
    91   46   47 1    
    92   46  108 1    
    93   46  109 1    
    94   47   48 1    
    95   48  110 1    
    96   48  111 1    
    97   49   50 am   BACKBONE|DICT|INTERRES
    98   49  112 1    
    99   50   51 2    
   100   50   52 1    
   101   52   53 1    
   102   52   54 1    
   103   52  113 1    
   104   53  114 1    
   105   53  115 1    
   106   53  116 1    
   107   54   55 am   BACKBONE|DICT|INTERRES
   108   54  117 1    
   109   55   56 2    
   110   55   57 1    
   111   57   58 1    
   112   57   59 1    
   113   57  118 1    
   114   58  119 1    
   115   58  120 1    
   116   58  121 1    
   117   59   60 am   BACKBONE|DICT|INTERRES
   118   59  122 1    
   119   60   61 2    
   120   60   62 1    
   121   62   63 1    
   122   62   64 1    
   123   62  123 1    
   124   63  124 1    
   125   63  125 1    
   126   63  126 1    
   127   64   65 am   BACKBONE|DICT|INTERRES
   128   64  127 1    
   129   65   66 2    
@<TRIPOS>SUBSTRUCTURE
     1 UNK         1 GROUP             0       ****    0 ROOT    
