@<TRIPOS>MOLECULE
3R135
127   129    1
SMALL
USER_CHARGES


@<TRIPOS>ATOM
      1 CA        -83.4381   28.7025  -72.0469 C.3       0 UNK        -0.1998 
      2 C         -82.7833   28.7324  -73.4197 C.2       0 UNK         0.4909 
      3 O         -83.4661   28.9570  -74.4195 O.2       0 UNK        -0.5240 
      4 N         -81.4636   28.5089  -73.4740 N.am      1 UNK        -0.4739 
      5 CA        -80.6672   28.4862  -74.7097 C.3       1 UNK         0.0864 
      6 C6        -79.1537   28.6304  -74.4209 C.3       11 UNK        -0.0881 
      7 S7        -78.7426   30.2612  -73.7057 S.3       11 UNK        -0.2682 
      8 C8        -78.6046   29.9109  -71.9207 C.3       11 UNK         0.0289 
      9 C9        -77.4215   29.0085  -71.6062 C.ar      11 UNK        -0.0687 
     10 C10       -77.6254   27.6747  -71.2452 C.ar      11 UNK        -0.0823 
     11 C11       -76.5376   26.8276  -71.0154 C.ar      11 UNK        -0.0830 
     12 C12       -75.2396   27.3401  -71.1104 C.ar      11 UNK        -0.1021 
     13 C13       -75.0165   28.6798  -71.4487 C.ar      11 UNK        -0.0753 
     14 C14       -76.1194   29.5065  -71.6947 C.ar      11 UNK        -0.0933 
     15 C15       -73.5765   29.1723  -71.6066 C.3       11 UNK         0.0166 
     16 S16       -73.2766   30.9030  -71.1202 S.3       11 UNK        -0.2615 
     17 C17       -73.6796   31.8131  -72.6584 C.3       11 UNK        -0.0865 
     18 CA        -72.4618   32.3611  -73.4505 C.3       10 UNK         0.0862 
     19 C         -71.5619   33.3161  -72.6099 C.2       10 UNK         0.5551 
     20 N         -70.2820   33.0219  -72.4137 N.am      10 UNK        -0.7319 
     21 O         -72.0330   34.3507  -72.1433 O.2       10 UNK        -0.5018 
     22 N         -71.7511   31.2979  -74.1837 N.am      10 UNK        -0.4509 
     23 C         -71.0040   31.5039  -75.2766 C.2       10 UNK         0.4899 
     24 O         -70.8349   32.6157  -75.7788 O.2       10 UNK        -0.4839 
     25 CA        -70.3399   30.2916  -75.9592 C.3       9 UNK         0.0222 
     26 CB        -68.8875   30.1107  -75.4739 C.3       9 UNK        -0.1966 
     27 N         -71.0992   29.0334  -75.8952 N.am      9 UNK        -0.4218 
     28 C         -71.3464   28.2526  -74.8343 C.2       9 UNK         0.5020 
     29 O         -70.9518   28.5048  -73.6946 O.2       9 UNK        -0.5274 
     30 CA        -72.1960   26.9925  -75.1045 C.3       8 UNK         0.0270 
     31 CB        -72.6502   26.2736  -73.8170 C.3       8 UNK        -0.1976 
     32 N         -73.3492   27.2215  -75.9877 N.am      8 UNK        -0.4313 
     33 C         -74.3164   28.1438  -75.8679 C.2       8 UNK         0.5041 
     34 O         -74.3307   29.0204  -75.0068 O.2       8 UNK        -0.5577 
     35 CA        -75.4799   28.0896  -76.8751 C.3       7 UNK         0.0284 
     36 CB        -75.1333   28.8574  -78.1659 C.3       7 UNK        -0.1958 
     37 N         -75.9837   26.7365  -77.1593 N.am      7 UNK        -0.4454 
     38 C         -75.3767   25.7256  -77.7979 C.2       7 UNK         0.5089 
     39 O         -74.2437   25.7954  -78.2785 O.2       7 UNK        -0.5125 
     40 CA        -76.1648   24.4033  -77.8375 C.3       6 UNK         0.0408 
     41 CB        -75.3963   23.2583  -78.5299 C.3       6 UNK        -0.1791 
     42 N         -76.6148   24.0090  -76.4968 N.am      6 UNK        -0.4762 
     43 C         -75.8469   23.7306  -75.4286 C.2       6 UNK         0.5007 
     44 O         -74.6172   23.6971  -75.4475 O.2       6 UNK        -0.5032 
     45 CA        -76.5898   23.4411  -74.1130 C.3       5 UNK         0.0783 
     46 C46       -77.0347   24.7690  -73.4532 C.3       11 UNK        -0.0857 
     47 S47       -77.8808   24.5171  -71.8559 S.3       11 UNK        -0.2512 
     48 C48       -76.7558   25.3539  -70.6848 C.3       11 UNK         0.0225 
     49 N         -77.7114   22.5372  -74.3752 N.am      5 UNK        -0.4615 
     50 C         -77.6185   21.2009  -74.4012 C.2       4 UNK         0.5053 
     51 O         -76.6047   20.5775  -74.0858 O.2       4 UNK        -0.5105 
     52 CA        -78.8615   20.4234  -74.8748 C.3       4 UNK         0.0263 
     53 CB        -79.7766   20.0958  -73.6839 C.3       4 UNK        -0.1981 
     54 N         -79.6283   21.1496  -75.8898 N.am      4 UNK        -0.4224 
     55 C         -79.1918   21.4246  -77.1283 C.2       3 UNK         0.4895 
     56 O         -78.1571   20.9601  -77.6056 O.2       3 UNK        -0.5091 
     57 CA        -80.0310   22.4046  -77.9725 C.3       3 UNK         0.0250 
     58 CB        -80.8366   21.6425  -79.0372 C.3       3 UNK        -0.1996 
     59 N         -80.9439   23.2516  -77.1924 N.am      3 UNK        -0.4254 
     60 C         -80.5710   24.1559  -76.2758 C.2       2 UNK         0.5004 
     61 O         -79.3961   24.3742  -75.9689 O.2       2 UNK        -0.5226 
     62 CA        -81.7131   24.8538  -75.5189 C.3       2 UNK         0.0269 
     63 CB        -82.2529   23.9294  -74.4138 C.3       2 UNK        -0.1926 
     64 N         -81.3173   26.1220  -74.9038 N.am      2 UNK        -0.4687 
     65 C         -80.9511   27.2307  -75.5633 C.2       1 UNK         0.5165 
     66 O         -80.8688   27.3020  -76.7906 O.2       1 UNK        -0.5079 
     67 H67       -82.7171   28.5035  -71.2542 H         1 UNK         0.0900 
     68 H68       -83.9148   29.6600  -71.8383 H         1 UNK         0.0900 
     69 H69       -84.2024   27.9265  -72.0129 H         1 UNK         0.0900 
     70 H70       -80.9544   28.3417  -72.6194 H         1 UNK         0.2959 
     71 H71       -80.9742   29.3416  -75.3165 H         1 UNK         0.1079 
     72 H72       -78.5833   28.5406  -75.3472 H         1 UNK         0.0837 
     73 H73       -78.7992   27.8260  -73.7755 H         1 UNK         0.0837 
     74 H74       -79.5363   29.4766  -71.5573 H         1 UNK         0.0685 
     75 H75       -78.4839   30.8553  -71.3881 H         1 UNK         0.0685 
     76 H76       -78.6307   27.2831  -71.1744 H         1 UNK         0.1434 
     77 H77       -74.3948   26.6868  -70.9391 H         1 UNK         0.1329 
     78 H78       -75.9798   30.5380  -71.9783 H         1 UNK         0.1335 
     79 H79       -73.2775   29.0465  -72.6439 H         1 UNK         0.0680 
     80 H80       -72.9051   28.5455  -71.0179 H         1 UNK         0.0680 
     81 H81       -74.3346   32.6417  -72.3832 H         1 UNK         0.1032 
     82 H82       -74.2778   31.1827  -73.3181 H         1 UNK         0.1032 
     83 H83       -72.8919   33.0070  -74.2189 H         1 UNK         0.0461 
     84 H84       -69.7053   33.6478  -71.8742 H         1 UNK         0.3453 
     85 H85       -69.8949   32.1721  -72.7909 H         1 UNK         0.3453 
     86 H86       -71.8002   30.3595  -73.8026 H         1 UNK         0.2984 
     87 H87       -70.2920   30.5345  -77.0220 H         1 UNK         0.0554 
     88 H88       -68.3059   31.0175  -75.6451 H         1 UNK         0.0847 
     89 H89       -68.3882   29.3016  -76.0069 H         1 UNK         0.0847 
     90 H90       -68.8345   29.8926  -74.4070 H         1 UNK         0.0847 
     91 H91       -71.5150   28.7459  -76.7704 H         1 UNK         0.3141 
     92 H92       -71.5353   26.3076  -75.6380 H         1 UNK         0.0743 
     93 H93       -71.8214   26.1236  -73.1241 H         1 UNK         0.0784 
     94 H94       -73.0566   25.2888  -74.0419 H         1 UNK         0.0784 
     95 H95       -73.4232   26.8335  -73.2951 H         1 UNK         0.0784 
     96 H96       -73.4467   26.5762  -76.7696 H         1 UNK         0.3213 
     97 H97       -76.3122   28.6150  -76.4037 H         1 UNK         0.0855 
     98 H98       -74.2911   28.4131  -78.6968 H         1 UNK         0.0814 
     99 H99       -74.8627   29.8898  -77.9401 H         1 UNK         0.0814 
    100 H100      -75.9822   28.8877  -78.8488 H         1 UNK         0.0814 
    101 H101      -76.8960   26.5361  -76.7736 H         1 UNK         0.3105 
    102 H102      -77.0660   24.5948  -78.4217 H         1 UNK         0.0547 
    103 H103      -75.9880   22.3438  -78.5578 H         1 UNK         0.0837 
    104 H104      -74.4559   23.0331  -78.0265 H         1 UNK         0.0837 
    105 H105      -75.1557   23.5202  -79.5608 H         1 UNK         0.0837 
    106 H106      -77.6220   24.0469  -76.3482 H         1 UNK         0.3020 
    107 H107      -75.8832   22.9511  -73.4387 H         1 UNK         0.1245 
    108 H108      -77.7173   25.3200  -74.1025 H         1 UNK         0.0781 
    109 H109      -76.1704   25.4202  -73.3102 H         1 UNK         0.0781 
    110 H110      -75.8077   24.8141  -70.6689 H         1 UNK         0.0836 
    111 H111      -77.1715   25.2762  -69.6795 H         1 UNK         0.0836 
    112 H112      -78.5678   22.9811  -74.6822 H         1 UNK         0.3022 
    113 H113      -78.5191   19.4847  -75.3157 H         1 UNK         0.0747 
    114 H114      -80.6275   19.4878  -73.9917 H         1 UNK         0.0793 
    115 H115      -79.2363   19.5320  -72.9220 H         1 UNK         0.0793 
    116 H116      -80.1617   20.9989  -73.2081 H         1 UNK         0.0793 
    117 H117      -80.5082   21.5469  -75.5976 H         1 UNK         0.3047 
    118 H118      -79.3273   23.0650  -78.4839 H         1 UNK         0.0822 
    119 H119      -81.3597   22.3267  -79.7057 H         1 UNK         0.0807 
    120 H120      -81.5762   20.9794  -78.5868 H         1 UNK         0.0807 
    121 H121      -80.1821   21.0272  -79.6564 H         1 UNK         0.0807 
    122 H122      -81.9301   23.1212  -77.3698 H         1 UNK         0.2946 
    123 H123      -82.5143   25.0669  -76.2304 H         1 UNK         0.1144 
    124 H124      -83.0900   24.3883  -73.8871 H         1 UNK         0.0793 
    125 H125      -81.4844   23.6909  -73.6767 H         1 UNK         0.0793 
    126 H126      -82.6156   22.9863  -74.8249 H         1 UNK         0.0793 
    127 H127      -81.3429   26.1613  -73.8960 H         1 UNK         0.2896 
@<TRIPOS>BOND
     1    1    2 1    
     2    1   67 1    
     3    1   68 1    
     4    1   69 1    
     5    2    3 2    
     6    2    4 am   BACKBONE|DICT|INTERRES
     7    4    5 1    
     8    4   70 1    
     9    5    6 1    
    10    5   65 1    
    11    5   71 1    
    12    6    7 1    
    13    6   72 1    
    14    6   73 1    
    15    7    8 1    
    16    8    9 1    
    17    8   74 1    
    18    8   75 1    
    19    9   10 ar   
    20    9   14 ar   
    21   10   11 ar   
    22   10   76 1    
    23   11   12 ar   
    24   11   48 1    
    25   12   13 ar   
    26   12   77 1    
    27   13   14 ar   
    28   13   15 1    
    29   14   78 1    
    30   15   16 1    
    31   15   79 1    
    32   15   80 1    
    33   16   17 1    
    34   17   18 1    
    35   17   81 1    
    36   17   82 1    
    37   18   19 1    
    38   18   22 1    
    39   18   83 1    
    40   19   20 am   BACKBONE|DICT|INTERRES
    41   19   21 2    
    42   20   84 1    
    43   20   85 1    
    44   22   23 am   BACKBONE|DICT|INTERRES
    45   22   86 1    
    46   23   24 2    
    47   23   25 1    
    48   25   26 1    
    49   25   27 1    
    50   25   87 1    
    51   26   88 1    
    52   26   89 1    
    53   26   90 1    
    54   27   28 am   BACKBONE|DICT|INTERRES
    55   27   91 1    
    56   28   29 2    
    57   28   30 1    
    58   30   31 1    
    59   30   32 1    
    60   30   92 1    
    61   31   93 1    
    62   31   94 1    
    63   31   95 1    
    64   32   33 am   BACKBONE|DICT|INTERRES
    65   32   96 1    
    66   33   34 2    
    67   33   35 1    
    68   35   36 1    
    69   35   37 1    
    70   35   97 1    
    71   36   98 1    
    72   36   99 1    
    73   36  100 1    
    74   37   38 am   BACKBONE|DICT|INTERRES
    75   37  101 1    
    76   38   39 2    
    77   38   40 1    
    78   40   41 1    
    79   40   42 1    
    80   40  102 1    
    81   41  103 1    
    82   41  104 1    
    83   41  105 1    
    84   42   43 am   BACKBONE|DICT|INTERRES
    85   42  106 1    
    86   43   44 2    
    87   43   45 1    
    88   45   46 1    
    89   45   49 1    
    90   45  107 1    
    91   46   47 1    
    92   46  108 1    
    93   46  109 1    
    94   47   48 1    
    95   48  110 1    
    96   48  111 1    
    97   49   50 am   BACKBONE|DICT|INTERRES
    98   49  112 1    
    99   50   51 2    
   100   50   52 1    
   101   52   53 1    
   102   52   54 1    
   103   52  113 1    
   104   53  114 1    
   105   53  115 1    
   106   53  116 1    
   107   54   55 am   BACKBONE|DICT|INTERRES
   108   54  117 1    
   109   55   56 2    
   110   55   57 1    
   111   57   58 1    
   112   57   59 1    
   113   57  118 1    
   114   58  119 1    
   115   58  120 1    
   116   58  121 1    
   117   59   60 am   BACKBONE|DICT|INTERRES
   118   59  122 1    
   119   60   61 2    
   120   60   62 1    
   121   62   63 1    
   122   62   64 1    
   123   62  123 1    
   124   63  124 1    
   125   63  125 1    
   126   63  126 1    
   127   64   65 am   BACKBONE|DICT|INTERRES
   128   64  127 1    
   129   65   66 2    
@<TRIPOS>SUBSTRUCTURE
     1 UNK         1 GROUP             0       ****    0 ROOT    
