@<TRIPOS>MOLECULE
3R135
127   129    1
SMALL
USER_CHARGES


@<TRIPOS>ATOM
      1 CA        -81.0904   30.1499  -78.4341 C.3       0 UNK        -0.1998 
      2 C         -80.2885   29.0953  -77.6867 C.2       0 UNK         0.4909 
      3 O         -79.2564   28.6460  -78.1829 O.2       0 UNK        -0.5240 
      4 N         -80.7573   28.6931  -76.4971 N.am      1 UNK        -0.4739 
      5 CA        -80.1157   27.6805  -75.6473 C.3       1 UNK         0.0864 
      6 C6        -80.5382   27.8497  -74.1642 C.3       11 UNK        -0.0881 
      7 S7        -79.2900   27.2295  -72.9875 S.3       11 UNK        -0.2682 
      8 C8        -78.1082   28.6124  -73.0031 C.3       11 UNK         0.0289 
      9 C9        -76.9248   28.3635  -72.0816 C.ar      11 UNK        -0.0687 
     10 C10       -76.0195   27.3352  -72.3578 C.ar      11 UNK        -0.0823 
     11 C11       -74.8902   27.1432  -71.5553 C.ar      11 UNK        -0.0830 
     12 C12       -74.6754   27.9868  -70.4602 C.ar      11 UNK        -0.1021 
     13 C13       -75.5787   29.0149  -70.1705 C.ar      11 UNK        -0.0753 
     14 C14       -76.7029   29.1942  -70.9812 C.ar      11 UNK        -0.0933 
     15 C15       -75.3535   29.9384  -68.9831 C.3       11 UNK         0.0166 
     16 S16       -74.8131   31.5976  -69.5073 S.3       11 UNK        -0.2615 
     17 C17       -73.0546   31.3178  -69.9081 C.3       11 UNK        -0.0865 
     18 CA        -72.7050   31.6101  -71.3913 C.3       10 UNK         0.0862 
     19 C         -71.1597   31.5722  -71.5867 C.2       10 UNK         0.5551 
     20 N         -70.5910   30.5639  -72.2364 N.am      10 UNK        -0.7319 
     21 O         -70.4655   32.4794  -71.1345 O.2       10 UNK        -0.5018 
     22 N         -73.4643   30.7502  -72.3136 N.am      10 UNK        -0.4509 
     23 C         -73.5282   30.9131  -73.6409 C.2       10 UNK         0.4899 
     24 O         -73.0446   31.8691  -74.2500 O.2       10 UNK        -0.4839 
     25 CA        -74.2277   29.7891  -74.4241 C.3       9 UNK         0.0222 
     26 CB        -75.2995   30.3405  -75.3788 C.3       9 UNK        -0.1966 
     27 N         -73.2883   28.9489  -75.1723 N.am      9 UNK        -0.4218 
     28 C         -72.2410   28.2874  -74.6546 C.2       9 UNK         0.5020 
     29 O         -71.9232   28.3305  -73.4644 O.2       9 UNK        -0.5274 
     30 CA        -71.4151   27.4228  -75.6204 C.3       8 UNK         0.0270 
     31 CB        -70.6525   26.2948  -74.8982 C.3       8 UNK        -0.1976 
     32 N         -72.2676   26.8345  -76.6536 N.am      8 UNK        -0.4313 
     33 C         -72.0147   26.8606  -77.9687 C.2       8 UNK         0.5041 
     34 O         -71.0340   27.4204  -78.4613 O.2       8 UNK        -0.5577 
     35 CA        -72.9958   26.1334  -78.9096 C.3       7 UNK         0.0284 
     36 CB        -72.3500   24.8556  -79.4717 C.3       7 UNK        -0.1958 
     37 N         -74.2775   25.7808  -78.2948 N.am      7 UNK        -0.4454 
     38 C         -75.2362   26.6526  -77.9557 C.2       7 UNK         0.5089 
     39 O         -75.1450   27.8696  -78.1167 O.2       7 UNK        -0.5125 
     40 CA        -76.4982   26.0578  -77.3029 C.3       6 UNK         0.0408 
     41 CB        -77.4501   25.5713  -78.4085 C.3       6 UNK        -0.1791 
     42 N         -76.2592   24.9542  -76.3578 N.am      6 UNK        -0.4762 
     43 C         -75.3611   24.9201  -75.3614 C.2       6 UNK         0.5007 
     44 O         -74.5520   25.8250  -75.1583 O.2       6 UNK        -0.5032 
     45 CA        -75.3486   23.6566  -74.4682 C.3       5 UNK         0.0783 
     46 C46       -74.2080   23.6409  -73.4034 C.3       11 UNK        -0.0857 
     47 S47       -74.6322   24.3936  -71.7843 S.3       11 UNK        -0.2512 
     48 C48       -73.8868   26.0503  -71.8984 C.3       11 UNK         0.0225 
     49 N         -76.6475   23.3788  -73.8496 N.am      5 UNK        -0.4615 
     50 C         -77.7484   22.8853  -74.4243 C.2       4 UNK         0.5053 
     51 O         -77.8311   22.6318  -75.6276 O.2       4 UNK        -0.5105 
     52 CA        -78.9319   22.5820  -73.4890 C.3       4 UNK         0.0263 
     53 CB        -78.8376   23.2576  -72.1013 C.3       4 UNK        -0.1981 
     54 N         -80.1949   22.9454  -74.1281 N.am      4 UNK        -0.4224 
     55 C         -81.3581   22.3086  -73.9269 C.2       3 UNK         0.4895 
     56 O         -81.4671   21.3085  -73.2151 O.2       3 UNK        -0.5091 
     57 CA        -82.6320   22.8728  -74.5883 C.3       3 UNK         0.0250 
     58 CB        -83.5455   23.5119  -73.5283 C.3       3 UNK        -0.1996 
     59 N         -82.3700   23.8602  -75.6342 N.am      3 UNK        -0.4254 
     60 C         -81.9196   23.5783  -76.8629 C.2       2 UNK         0.5004 
     61 O         -81.7594   22.4336  -77.2874 O.2       2 UNK        -0.5226 
     62 CA        -81.5767   24.7750  -77.7704 C.3       2 UNK         0.0269 
     63 CB        -82.6986   25.0109  -78.7947 C.3       2 UNK        -0.1926 
     64 N         -81.3006   26.0376  -77.0681 N.am      2 UNK        -0.4687 
     65 C         -80.3335   26.2387  -76.1579 C.2       1 UNK         0.5165 
     66 O         -79.6253   25.3325  -75.7226 O.2       1 UNK        -0.5079 
     67 H67       -81.4126   29.7611  -79.3997 H         1 UNK         0.0900 
     68 H68       -81.9763   30.4589  -77.8796 H         1 UNK         0.0900 
     69 H69       -80.4758   31.0323  -78.6100 H         1 UNK         0.0900 
     70 H70       -81.6108   29.0981  -76.1376 H         1 UNK         0.2959 
     71 H71       -79.0400   27.8529  -75.7157 H         1 UNK         0.1079 
     72 H72       -81.4908   27.3549  -73.9647 H         1 UNK         0.0837 
     73 H73       -80.7048   28.9034  -73.9336 H         1 UNK         0.0837 
     74 H74       -78.6284   29.5296  -72.7226 H         1 UNK         0.0685 
     75 H75       -77.7338   28.7661  -74.0156 H         1 UNK         0.0685 
     76 H76       -76.1846   26.6968  -73.2138 H         1 UNK         0.1434 
     77 H77       -73.8026   27.8472  -69.8369 H         1 UNK         0.1329 
     78 H78       -77.3942   29.9967  -70.7620 H         1 UNK         0.1335 
     79 H79       -76.2870   30.0357  -68.4268 H         1 UNK         0.0680 
     80 H80       -74.6293   29.5149  -68.2854 H         1 UNK         0.0680 
     81 H81       -72.4743   31.9655  -69.2477 H         1 UNK         0.1032 
     82 H82       -72.7681   30.2977  -69.6468 H         1 UNK         0.1032 
     83 H83       -73.0079   32.6375  -71.6028 H         1 UNK         0.0461 
     84 H84       -69.5909   30.5540  -72.3530 H         1 UNK         0.3453 
     85 H85       -71.1518   29.8011  -72.6093 H         1 UNK         0.3453 
     86 H86       -73.8828   29.9263  -71.9044 H         1 UNK         0.2984 
     87 H87       -74.7283   29.1418  -73.7099 H         1 UNK         0.0554 
     88 H88       -76.0184   30.9598  -74.8409 H         1 UNK         0.0847 
     89 H89       -75.8590   29.5348  -75.8550 H         1 UNK         0.0847 
     90 H90       -74.8619   30.9558  -76.1659 H         1 UNK         0.0847 
     91 H91       -73.4664   28.8494  -76.1618 H         1 UNK         0.3141 
     92 H92       -70.6816   28.0953  -76.0694 H         1 UNK         0.0743 
     93 H93       -71.3343   25.6210  -74.3782 H         1 UNK         0.0784 
     94 H94       -70.0641   25.7025  -75.5991 H         1 UNK         0.0784 
     95 H95       -69.9606   26.6978  -74.1574 H         1 UNK         0.0784 
     96 H96       -73.1208   26.3937  -76.3141 H         1 UNK         0.3213 
     97 H97       -73.1982   26.8090  -79.7437 H         1 UNK         0.0855 
     98 H98       -72.1302   24.1341  -78.6837 H         1 UNK         0.0814 
     99 H99       -71.4095   25.0820  -79.9762 H         1 UNK         0.0814 
    100 H100      -72.9970   24.3708  -80.2030 H         1 UNK         0.0814 
    101 H101      -74.4419   24.8021  -78.1094 H         1 UNK         0.3105 
    102 H102      -76.9917   26.8544  -76.7435 H         1 UNK         0.0547 
    103 H103      -78.3531   25.1256  -77.9984 H         1 UNK         0.0837 
    104 H104      -76.9802   24.8228  -79.0476 H         1 UNK         0.0837 
    105 H105      -77.7590   26.3998  -79.0477 H         1 UNK         0.0837 
    106 H106      -76.9118   24.1755  -76.4035 H         1 UNK         0.3020 
    107 H107      -75.1399   22.8349  -75.1575 H         1 UNK         0.1245 
    108 H108      -73.2787   24.0639  -73.7891 H         1 UNK         0.0781 
    109 H109      -73.9618   22.6000  -73.1885 H         1 UNK         0.0781 
    110 H110      -73.5004   26.2298  -72.8993 H         1 UNK         0.0836 
    111 H111      -73.0225   26.0921  -71.2342 H         1 UNK         0.0836 
    112 H112      -76.6824   23.5830  -72.8606 H         1 UNK         0.3022 
    113 H113      -78.9103   21.5005  -73.3401 H         1 UNK         0.0747 
    114 H114      -79.7091   23.0249  -71.4893 H         1 UNK         0.0793 
    115 H115      -77.9661   22.9131  -71.5433 H         1 UNK         0.0793 
    116 H116      -78.7765   24.3432  -72.1852 H         1 UNK         0.0793 
    117 H117      -80.1450   23.7351  -74.7688 H         1 UNK         0.3047 
    118 H118      -83.1646   22.0306  -75.0356 H         1 UNK         0.0822 
    119 H119      -84.4824   23.8570  -73.9662 H         1 UNK         0.0807 
    120 H120      -83.0660   24.3630  -73.0426 H         1 UNK         0.0807 
    121 H121      -83.8013   22.7938  -72.7478 H         1 UNK         0.0807 
    122 H122      -82.4726   24.8317  -75.3808 H         1 UNK         0.2946 
    123 H123      -80.6711   24.5003  -78.3150 H         1 UNK         0.1144 
    124 H124      -82.9127   24.1012  -79.3578 H         1 UNK         0.0793 
    125 H125      -82.4218   25.7779  -79.5183 H         1 UNK         0.0793 
    126 H126      -83.6263   25.3212  -78.3121 H         1 UNK         0.0793 
    127 H127      -81.8357   26.8416  -77.3627 H         1 UNK         0.2896 
@<TRIPOS>BOND
     1    1    2 1    
     2    1   67 1    
     3    1   68 1    
     4    1   69 1    
     5    2    3 2    
     6    2    4 am   BACKBONE|DICT|INTERRES
     7    4    5 1    
     8    4   70 1    
     9    5    6 1    
    10    5   65 1    
    11    5   71 1    
    12    6    7 1    
    13    6   72 1    
    14    6   73 1    
    15    7    8 1    
    16    8    9 1    
    17    8   74 1    
    18    8   75 1    
    19    9   10 ar   
    20    9   14 ar   
    21   10   11 ar   
    22   10   76 1    
    23   11   12 ar   
    24   11   48 1    
    25   12   13 ar   
    26   12   77 1    
    27   13   14 ar   
    28   13   15 1    
    29   14   78 1    
    30   15   16 1    
    31   15   79 1    
    32   15   80 1    
    33   16   17 1    
    34   17   18 1    
    35   17   81 1    
    36   17   82 1    
    37   18   19 1    
    38   18   22 1    
    39   18   83 1    
    40   19   20 am   BACKBONE|DICT|INTERRES
    41   19   21 2    
    42   20   84 1    
    43   20   85 1    
    44   22   23 am   BACKBONE|DICT|INTERRES
    45   22   86 1    
    46   23   24 2    
    47   23   25 1    
    48   25   26 1    
    49   25   27 1    
    50   25   87 1    
    51   26   88 1    
    52   26   89 1    
    53   26   90 1    
    54   27   28 am   BACKBONE|DICT|INTERRES
    55   27   91 1    
    56   28   29 2    
    57   28   30 1    
    58   30   31 1    
    59   30   32 1    
    60   30   92 1    
    61   31   93 1    
    62   31   94 1    
    63   31   95 1    
    64   32   33 am   BACKBONE|DICT|INTERRES
    65   32   96 1    
    66   33   34 2    
    67   33   35 1    
    68   35   36 1    
    69   35   37 1    
    70   35   97 1    
    71   36   98 1    
    72   36   99 1    
    73   36  100 1    
    74   37   38 am   BACKBONE|DICT|INTERRES
    75   37  101 1    
    76   38   39 2    
    77   38   40 1    
    78   40   41 1    
    79   40   42 1    
    80   40  102 1    
    81   41  103 1    
    82   41  104 1    
    83   41  105 1    
    84   42   43 am   BACKBONE|DICT|INTERRES
    85   42  106 1    
    86   43   44 2    
    87   43   45 1    
    88   45   46 1    
    89   45   49 1    
    90   45  107 1    
    91   46   47 1    
    92   46  108 1    
    93   46  109 1    
    94   47   48 1    
    95   48  110 1    
    96   48  111 1    
    97   49   50 am   BACKBONE|DICT|INTERRES
    98   49  112 1    
    99   50   51 2    
   100   50   52 1    
   101   52   53 1    
   102   52   54 1    
   103   52  113 1    
   104   53  114 1    
   105   53  115 1    
   106   53  116 1    
   107   54   55 am   BACKBONE|DICT|INTERRES
   108   54  117 1    
   109   55   56 2    
   110   55   57 1    
   111   57   58 1    
   112   57   59 1    
   113   57  118 1    
   114   58  119 1    
   115   58  120 1    
   116   58  121 1    
   117   59   60 am   BACKBONE|DICT|INTERRES
   118   59  122 1    
   119   60   61 2    
   120   60   62 1    
   121   62   63 1    
   122   62   64 1    
   123   62  123 1    
   124   63  124 1    
   125   63  125 1    
   126   63  126 1    
   127   64   65 am   BACKBONE|DICT|INTERRES
   128   64  127 1    
   129   65   66 2    
@<TRIPOS>SUBSTRUCTURE
     1 UNK         1 GROUP             0       ****    0 ROOT    
