@<TRIPOS>MOLECULE
3R135
127   129    1
SMALL
USER_CHARGES


@<TRIPOS>ATOM
      1 CA        -80.4406   25.5020  -72.1548 C.3       0 UNK        -0.1998 
      2 C         -80.0066   25.8789  -73.5624 C.2       0 UNK         0.4909 
      3 O         -78.9908   25.3656  -74.0342 O.2       0 UNK        -0.5240 
      4 N         -80.7815   26.7564  -74.2195 N.am      1 UNK        -0.4739 
      5 CA        -80.5633   27.3531  -75.5494 C.3       1 UNK         0.0864 
      6 C6        -79.4713   28.4551  -75.5657 C.3       11 UNK        -0.0881 
      7 S7        -79.7936   29.7773  -74.3471 S.3       11 UNK        -0.2682 
      8 C8        -78.1258   30.4819  -74.1461 C.3       11 UNK         0.0289 
      9 C9        -77.3325   29.8889  -72.9824 C.ar      11 UNK        -0.0687 
     10 C10       -77.2557   28.5076  -72.7755 C.ar      11 UNK        -0.0823 
     11 C11       -76.4848   27.9758  -71.7397 C.ar      11 UNK        -0.0830 
     12 C12       -75.7968   28.8405  -70.8841 C.ar      11 UNK        -0.1021 
     13 C13       -75.8634   30.2246  -71.0739 C.ar      11 UNK        -0.0753 
     14 C14       -76.6288   30.7398  -72.1245 C.ar      11 UNK        -0.0933 
     15 C15       -75.1274   31.1743  -70.1408 C.3       11 UNK         0.0166 
     16 S16       -73.5061   31.6599  -70.8099 S.3       11 UNK        -0.2615 
     17 C17       -72.4592   30.2757  -70.2458 C.3       11 UNK        -0.0865 
     18 CA        -71.2590   30.0053  -71.1865 C.3       10 UNK         0.0862 
     19 C         -70.3268   28.9290  -70.5627 C.2       10 UNK         0.5551 
     20 N         -69.3111   29.3449  -69.8186 N.am      10 UNK        -0.7319 
     21 O         -70.5455   27.7278  -70.7079 O.2       10 UNK        -0.5018 
     22 N         -71.7078   29.6606  -72.5439 N.am      10 UNK        -0.4509 
     23 C         -70.9037   29.4610  -73.5964 C.2       10 UNK         0.4899 
     24 O         -69.6815   29.6112  -73.5706 O.2       10 UNK        -0.4839 
     25 CA        -71.5720   29.0202  -74.9088 C.3       9 UNK         0.0222 
     26 CB        -71.6207   27.4857  -74.9904 C.3       9 UNK        -0.1966 
     27 N         -72.9219   29.5578  -75.0920 N.am      9 UNK        -0.4218 
     28 C         -73.2209   30.8396  -75.3397 C.2       9 UNK         0.5020 
     29 O         -72.3830   31.7413  -75.4014 O.2       9 UNK        -0.5274 
     30 CA        -74.7071   31.1394  -75.6213 C.3       8 UNK         0.0270 
     31 CB        -75.0072   32.6452  -75.7348 C.3       8 UNK        -0.1976 
     32 N         -75.1635   30.4597  -76.8411 N.am      8 UNK        -0.4313 
     33 C         -75.4379   29.1516  -76.9145 C.2       8 UNK         0.5041 
     34 O         -75.4317   28.4121  -75.9265 O.2       8 UNK        -0.5577 
     35 CA        -75.7001   28.5537  -78.3045 C.3       7 UNK         0.0284 
     36 CB        -74.4299   28.6546  -79.1778 C.3       7 UNK        -0.1958 
     37 N         -76.0729   27.1587  -78.0880 N.am      7 UNK        -0.4454 
     38 C         -76.3958   26.2154  -78.9780 C.2       7 UNK         0.5089 
     39 O         -76.4914   26.4249  -80.1884 O.2       7 UNK        -0.5125 
     40 CA        -76.6804   24.7963  -78.4337 C.3       6 UNK         0.0408 
     41 CB        -75.9200   23.7116  -79.2253 C.3       6 UNK        -0.1791 
     42 N         -76.4814   24.6433  -76.9804 N.am      6 UNK        -0.4762 
     43 C         -75.3234   24.6647  -76.3000 C.2       6 UNK         0.5007 
     44 O         -74.2213   24.8020  -76.8311 O.2       6 UNK        -0.5032 
     45 CA        -75.3935   24.5250  -74.7668 C.3       5 UNK         0.0783 
     46 C46       -75.2377   25.8987  -74.0773 C.3       11 UNK        -0.0857 
     47 S47       -74.9057   25.7553  -72.2874 S.3       11 UNK        -0.2512 
     48 C48       -76.4075   26.4675  -71.5430 C.3       11 UNK         0.0225 
     49 N         -76.6047   23.8311  -74.3166 N.am      5 UNK        -0.4615 
     50 C         -76.6977   22.5001  -74.2321 C.2       4 UNK         0.5053 
     51 O         -75.8506   21.7247  -74.6767 O.2       4 UNK        -0.5105 
     52 CA        -77.9070   21.9358  -73.4825 C.3       4 UNK         0.0263 
     53 CB        -77.9220   22.3966  -72.0121 C.3       4 UNK        -0.1981 
     54 N         -79.1751   22.2790  -74.1295 N.am      4 UNK        -0.4224 
     55 C         -80.2052   21.4243  -74.2167 C.2       3 UNK         0.4895 
     56 O         -80.1548   20.2542  -73.8332 O.2       3 UNK        -0.5091 
     57 CA        -81.5372   21.9365  -74.7867 C.3       3 UNK         0.0250 
     58 CB        -82.5089   22.2825  -73.6457 C.3       3 UNK        -0.1996 
     59 N         -81.4207   23.0913  -75.6756 N.am      3 UNK        -0.4254 
     60 C         -81.0669   23.0284  -76.9670 C.2       2 UNK         0.5004 
     61 O         -80.6625   22.0038  -77.5165 O.2       2 UNK        -0.5226 
     62 CA        -81.2345   24.3130  -77.7983 C.3       2 UNK         0.0269 
     63 CB        -82.4878   24.2131  -78.6841 C.3       2 UNK        -0.1926 
     64 N         -81.3473   25.5041  -76.9492 N.am      2 UNK        -0.4687 
     65 C         -80.3063   26.2774  -76.6214 C.2       1 UNK         0.5165 
     66 O         -79.1782   26.1297  -77.0877 O.2       1 UNK        -0.5079 
     67 H67       -79.7879   25.9782  -71.4240 H         1 UNK         0.0900 
     68 H68       -80.3779   24.4239  -72.0140 H         1 UNK         0.0900 
     69 H69       -81.4653   25.8102  -71.9483 H         1 UNK         0.0900 
     70 H70       -81.5969   27.1137  -73.7413 H         1 UNK         0.2959 
     71 H71       -81.5028   27.8362  -75.8236 H         1 UNK         0.1079 
     72 H72       -78.4822   28.0244  -75.4094 H         1 UNK         0.0837 
     73 H73       -79.4289   28.9228  -76.5513 H         1 UNK         0.0837 
     74 H74       -77.5657   30.3513  -75.0713 H         1 UNK         0.0685 
     75 H75       -78.2383   31.5586  -74.0107 H         1 UNK         0.0685 
     76 H76       -77.7918   27.8325  -73.4208 H         1 UNK         0.1434 
     77 H77       -75.2106   28.4323  -70.0726 H         1 UNK         0.1329 
     78 H78       -76.6700   31.8101  -72.2749 H         1 UNK         0.1335 
     79 H79       -75.0051   30.7291  -69.1521 H         1 UNK         0.0680 
     80 H80       -75.7260   32.0745  -69.9929 H         1 UNK         0.0680 
     81 H81       -73.0618   29.3724  -70.1447 H         1 UNK         0.1032 
     82 H82       -72.1099   30.5191  -69.2403 H         1 UNK         0.1032 
     83 H83       -70.6863   30.9309  -71.2749 H         1 UNK         0.0461 
     84 H84       -68.7048   28.6622  -69.3912 H         1 UNK         0.3453 
     85 H85       -69.1298   30.3278  -69.6856 H         1 UNK         0.3453 
     86 H86       -72.6999   29.5194  -72.6604 H         1 UNK         0.2984 
     87 H87       -70.9571   29.3842  -75.7346 H         1 UNK         0.0554 
     88 H88       -72.1001   27.1453  -75.9090 H         1 UNK         0.0847 
     89 H89       -72.1607   27.0545  -74.1467 H         1 UNK         0.0847 
     90 H90       -70.6142   27.0655  -74.9753 H         1 UNK         0.0847 
     91 H91       -73.6930   28.8953  -75.1222 H         1 UNK         0.3141 
     92 H92       -75.2656   30.7575  -74.7661 H         1 UNK         0.0743 
     93 H93       -74.6954   33.1724  -74.8320 H         1 UNK         0.0784 
     94 H94       -74.4848   33.1010  -76.5768 H         1 UNK         0.0784 
     95 H95       -76.0745   32.8274  -75.8617 H         1 UNK         0.0784 
     96 H96       -75.1515   31.0048  -77.6914 H         1 UNK         0.3213 
     97 H97       -76.5339   29.0799  -78.7723 H         1 UNK         0.0855 
     98 H98       -74.1165   29.6904  -79.3107 H         1 UNK         0.0814 
     99 H99       -74.5904   28.2485  -80.1760 H         1 UNK         0.0814 
    100 H100      -73.5937   28.1157  -78.7298 H         1 UNK         0.0814 
    101 H101      -76.0463   26.9059  -77.1062 H         1 UNK         0.3105 
    102 H102      -77.7420   24.6186  -78.6058 H         1 UNK         0.0547 
    103 H103      -76.2144   23.7188  -80.2753 H         1 UNK         0.0837 
    104 H104      -74.8411   23.8640  -79.1951 H         1 UNK         0.0837 
    105 H105      -76.1314   22.7150  -78.8382 H         1 UNK         0.0837 
    106 H106      -77.3366   24.5987  -76.4409 H         1 UNK         0.3020 
    107 H107      -74.5250   23.9235  -74.4862 H         1 UNK         0.1245 
    108 H108      -76.1243   26.5055  -74.2547 H         1 UNK         0.0781 
    109 H109      -74.4027   26.4516  -74.5078 H         1 UNK         0.0781 
    110 H110      -76.4130   26.2390  -70.4764 H         1 UNK         0.0836 
    111 H111      -77.2855   25.9752  -71.9613 H         1 UNK         0.0836 
    112 H112      -77.3719   24.4155  -73.9932 H         1 UNK         0.3022 
    113 H113      -77.7744   20.8515  -73.4832 H         1 UNK         0.0747 
    114 H114      -78.7118   21.8978  -71.4503 H         1 UNK         0.0793 
    115 H115      -76.9772   22.1621  -71.5198 H         1 UNK         0.0793 
    116 H116      -78.0769   23.4718  -71.9223 H         1 UNK         0.0793 
    117 H117      -79.2747   23.2274  -74.4714 H         1 UNK         0.3047 
    118 H118      -81.9752   21.1134  -75.3565 H         1 UNK         0.0822 
    119 H119      -83.4959   22.5408  -74.0300 H         1 UNK         0.0807 
    120 H120      -82.1523   23.1199  -73.0465 H         1 UNK         0.0807 
    121 H121      -82.6398   21.4339  -72.9724 H         1 UNK         0.0807 
    122 H122      -81.7229   23.9804  -75.3083 H         1 UNK         0.2946 
    123 H123      -80.3633   24.3927  -78.4531 H         1 UNK         0.1144 
    124 H124      -82.5976   25.0954  -79.3150 H         1 UNK         0.0793 
    125 H125      -83.3972   24.1085  -78.0911 H         1 UNK         0.0793 
    126 H126      -82.4298   23.3485  -79.3470 H         1 UNK         0.0793 
    127 H127      -82.2530   25.6980  -76.5452 H         1 UNK         0.2896 
@<TRIPOS>BOND
     1    1    2 1    
     2    1   67 1    
     3    1   68 1    
     4    1   69 1    
     5    2    3 2    
     6    2    4 am   BACKBONE|DICT|INTERRES
     7    4    5 1    
     8    4   70 1    
     9    5    6 1    
    10    5   65 1    
    11    5   71 1    
    12    6    7 1    
    13    6   72 1    
    14    6   73 1    
    15    7    8 1    
    16    8    9 1    
    17    8   74 1    
    18    8   75 1    
    19    9   10 ar   
    20    9   14 ar   
    21   10   11 ar   
    22   10   76 1    
    23   11   12 ar   
    24   11   48 1    
    25   12   13 ar   
    26   12   77 1    
    27   13   14 ar   
    28   13   15 1    
    29   14   78 1    
    30   15   16 1    
    31   15   79 1    
    32   15   80 1    
    33   16   17 1    
    34   17   18 1    
    35   17   81 1    
    36   17   82 1    
    37   18   19 1    
    38   18   22 1    
    39   18   83 1    
    40   19   20 am   BACKBONE|DICT|INTERRES
    41   19   21 2    
    42   20   84 1    
    43   20   85 1    
    44   22   23 am   BACKBONE|DICT|INTERRES
    45   22   86 1    
    46   23   24 2    
    47   23   25 1    
    48   25   26 1    
    49   25   27 1    
    50   25   87 1    
    51   26   88 1    
    52   26   89 1    
    53   26   90 1    
    54   27   28 am   BACKBONE|DICT|INTERRES
    55   27   91 1    
    56   28   29 2    
    57   28   30 1    
    58   30   31 1    
    59   30   32 1    
    60   30   92 1    
    61   31   93 1    
    62   31   94 1    
    63   31   95 1    
    64   32   33 am   BACKBONE|DICT|INTERRES
    65   32   96 1    
    66   33   34 2    
    67   33   35 1    
    68   35   36 1    
    69   35   37 1    
    70   35   97 1    
    71   36   98 1    
    72   36   99 1    
    73   36  100 1    
    74   37   38 am   BACKBONE|DICT|INTERRES
    75   37  101 1    
    76   38   39 2    
    77   38   40 1    
    78   40   41 1    
    79   40   42 1    
    80   40  102 1    
    81   41  103 1    
    82   41  104 1    
    83   41  105 1    
    84   42   43 am   BACKBONE|DICT|INTERRES
    85   42  106 1    
    86   43   44 2    
    87   43   45 1    
    88   45   46 1    
    89   45   49 1    
    90   45  107 1    
    91   46   47 1    
    92   46  108 1    
    93   46  109 1    
    94   47   48 1    
    95   48  110 1    
    96   48  111 1    
    97   49   50 am   BACKBONE|DICT|INTERRES
    98   49  112 1    
    99   50   51 2    
   100   50   52 1    
   101   52   53 1    
   102   52   54 1    
   103   52  113 1    
   104   53  114 1    
   105   53  115 1    
   106   53  116 1    
   107   54   55 am   BACKBONE|DICT|INTERRES
   108   54  117 1    
   109   55   56 2    
   110   55   57 1    
   111   57   58 1    
   112   57   59 1    
   113   57  118 1    
   114   58  119 1    
   115   58  120 1    
   116   58  121 1    
   117   59   60 am   BACKBONE|DICT|INTERRES
   118   59  122 1    
   119   60   61 2    
   120   60   62 1    
   121   62   63 1    
   122   62   64 1    
   123   62  123 1    
   124   63  124 1    
   125   63  125 1    
   126   63  126 1    
   127   64   65 am   BACKBONE|DICT|INTERRES
   128   64  127 1    
   129   65   66 2    
@<TRIPOS>SUBSTRUCTURE
     1 UNK         1 GROUP             0       ****    0 ROOT    
