@<TRIPOS>MOLECULE
3R135
127   129    1
SMALL
USER_CHARGES


@<TRIPOS>ATOM
      1 CA        -82.8944   30.1690  -76.5746 C.3       0 UNK        -0.1998 
      2 C         -82.0886   29.2515  -75.6672 C.2       0 UNK         0.4909 
      3 O         -81.1328   28.6263  -76.1245 O.2       0 UNK        -0.5240 
      4 N         -82.4640   29.1747  -74.3848 N.am      1 UNK        -0.4739 
      5 CA        -81.8375   28.3263  -73.3636 C.3       1 UNK         0.0864 
      6 C6        -82.3458   28.6825  -71.9427 C.3       11 UNK        -0.0881 
      7 S7        -82.0768   30.4426  -71.5279 S.3       11 UNK        -0.2682 
      8 C8        -80.6785   30.3648  -70.3645 C.3       11 UNK         0.0289 
      9 C9        -79.4483   29.7201  -70.9861 C.ar      11 UNK        -0.0687 
     10 C10       -79.0463   28.4450  -70.5793 C.ar      11 UNK        -0.0823 
     11 C11       -77.9175   27.8427  -71.1405 C.ar      11 UNK        -0.0830 
     12 C12       -77.1983   28.5231  -72.1271 C.ar      11 UNK        -0.1021 
     13 C13       -77.5801   29.8042  -72.5337 C.ar      11 UNK        -0.0753 
     14 C14       -78.7066   30.3996  -71.9576 C.ar      11 UNK        -0.0933 
     15 C15       -76.7767   30.5424  -73.5946 C.3       11 UNK         0.0166 
     16 S16       -75.2944   31.3344  -72.8906 S.3       11 UNK        -0.2615 
     17 C17       -74.1815   29.9023  -72.6689 C.3       11 UNK        -0.0865 
     18 CA        -72.6753   30.2745  -72.8078 C.3       10 UNK         0.0862 
     19 C         -72.0148   30.7128  -71.4631 C.2       10 UNK         0.5551 
     20 N         -70.7332   30.4434  -71.2437 N.am      10 UNK        -0.7319 
     21 O         -72.6569   31.3287  -70.6160 O.2       10 UNK        -0.5018 
     22 N         -71.9202   29.2639  -73.5699 N.am      10 UNK        -0.4509 
     23 C         -71.7429   27.9788  -73.2297 C.2       10 UNK         0.4899 
     24 O         -72.1945   27.4681  -72.2036 O.2       10 UNK        -0.4839 
     25 CA        -70.9334   27.1329  -74.2265 C.3       9 UNK         0.0222 
     26 CB        -70.9899   25.6208  -73.9422 C.3       9 UNK        -0.1966 
     27 N         -71.3988   27.3966  -75.5908 N.am      9 UNK        -0.4218 
     28 C         -70.6013   27.6839  -76.6281 C.2       9 UNK         0.5020 
     29 O         -69.3705   27.6947  -76.5527 O.2       9 UNK        -0.5274 
     30 CA        -71.2823   28.0675  -77.9590 C.3       8 UNK         0.0270 
     31 CB        -70.3143   28.0214  -79.1616 C.3       8 UNK        -0.1976 
     32 N         -72.5060   27.3166  -78.2618 N.am      8 UNK        -0.4313 
     33 C         -72.6472   25.9955  -78.4351 C.2       8 UNK         0.5041 
     34 O         -71.7385   25.1800  -78.2676 O.2       8 UNK        -0.5577 
     35 CA        -74.0445   25.5169  -78.8923 C.3       7 UNK         0.0284 
     36 CB        -74.0937   23.9976  -79.1401 C.3       7 UNK        -0.1958 
     37 N         -75.1066   25.8758  -77.9483 N.am      7 UNK        -0.4454 
     38 C         -75.5753   27.1097  -77.7130 C.2       7 UNK         0.5089 
     39 O         -75.2227   28.1028  -78.3516 O.2       7 UNK        -0.5125 
     40 CA        -76.5530   27.2823  -76.5361 C.3       6 UNK         0.0408 
     41 CB        -78.0026   27.2960  -77.0367 C.3       6 UNK        -0.1791 
     42 N         -76.3974   26.2638  -75.4911 N.am      6 UNK        -0.4762 
     43 C         -75.2870   26.0999  -74.7548 C.2       6 UNK         0.5007 
     44 O         -74.3070   26.8398  -74.8497 O.2       6 UNK        -0.5032 
     45 CA        -75.2162   24.8837  -73.8131 C.3       5 UNK         0.0783 
     46 C46       -75.5811   25.2220  -72.3460 C.3       11 UNK        -0.0857 
     47 S47       -77.3729   25.2550  -71.9931 S.3       11 UNK        -0.2512 
     48 C48       -77.4643   26.4750  -70.6494 C.3       11 UNK         0.0225 
     49 N         -75.9789   23.7495  -74.3421 N.am      5 UNK        -0.4615 
     50 C         -75.4458   22.7319  -75.0283 C.2       4 UNK         0.5053 
     51 O         -74.2464   22.6299  -75.2848 O.2       4 UNK        -0.5105 
     52 CA        -76.4092   21.6339  -75.5108 C.3       4 UNK         0.0263 
     53 CB        -76.5991   20.5695  -74.4180 C.3       4 UNK        -0.1981 
     54 N         -77.7193   22.1369  -75.9307 N.am      4 UNK        -0.4224 
     55 C         -77.9232   22.9590  -76.9693 C.2       3 UNK         0.4895 
     56 O         -77.0232   23.4137  -77.6745 O.2       3 UNK        -0.5091 
     57 CA        -79.3795   23.3572  -77.2643 C.3       3 UNK         0.0250 
     58 CB        -80.0376   22.3222  -78.1910 C.3       3 UNK        -0.1996 
     59 N         -80.2249   23.5589  -76.0802 N.am      3 UNK        -0.4254 
     60 C         -79.9622   24.4074  -75.0766 C.2       2 UNK         0.5004 
     61 O         -78.8962   25.0129  -74.9494 O.2       2 UNK        -0.5226 
     62 CA        -81.0690   24.6075  -74.0361 C.3       2 UNK         0.0269 
     63 CB        -80.8573   23.6906  -72.8208 C.3       2 UNK        -0.1926 
     64 N         -81.0450   26.0068  -73.6091 N.am      2 UNK        -0.4687 
     65 C         -82.0928   26.8364  -73.6749 C.2       1 UNK         0.5165 
     66 O         -83.2363   26.4709  -73.9626 O.2       1 UNK        -0.5079 
     67 H67       -82.2477   30.9339  -77.0036 H         1 UNK         0.0900 
     68 H68       -83.7006   30.6686  -76.0377 H         1 UNK         0.0900 
     69 H69       -83.3339   29.5966  -77.3910 H         1 UNK         0.0900 
     70 H70       -83.2588   29.7105  -74.0674 H         1 UNK         0.2959 
     71 H71       -80.7603   28.5064  -73.4010 H         1 UNK         0.1079 
     72 H72       -83.4159   28.4815  -71.8595 H         1 UNK         0.0837 
     73 H73       -81.8664   28.0526  -71.1915 H         1 UNK         0.0837 
     74 H74       -80.4304   31.3772  -70.0427 H         1 UNK         0.0685 
     75 H75       -80.9902   29.8275  -69.4675 H         1 UNK         0.0685 
     76 H76       -79.6096   27.9247  -69.8166 H         1 UNK         0.1434 
     77 H77       -76.3332   28.0576  -72.5738 H         1 UNK         0.1329 
     78 H78       -79.0124   31.3895  -72.2676 H         1 UNK         0.1335 
     79 H79       -76.4912   29.8599  -74.3951 H         1 UNK         0.0680 
     80 H80       -77.3934   31.3120  -74.0614 H         1 UNK         0.0680 
     81 H81       -74.4454   29.1657  -73.4285 H         1 UNK         0.1032 
     82 H82       -74.3865   29.4209  -71.7108 H         1 UNK         0.1032 
     83 H83       -72.6110   31.1625  -73.4375 H         1 UNK         0.0461 
     84 H84       -70.1906   29.9476  -71.9323 H         1 UNK         0.3453 
     85 H85       -70.3076   30.7361  -70.3783 H         1 UNK         0.3453 
     86 H86       -71.4921   29.5938  -74.4228 H         1 UNK         0.2984 
     87 H87       -69.8966   27.4539  -74.1092 H         1 UNK         0.0554 
     88 H88       -70.3469   25.0682  -74.6274 H         1 UNK         0.0847 
     89 H89       -72.0003   25.2315  -74.0506 H         1 UNK         0.0847 
     90 H90       -70.6544   25.3950  -72.9293 H         1 UNK         0.0847 
     91 H91       -72.4070   27.3979  -75.7116 H         1 UNK         0.3141 
     92 H92       -71.5956   29.1054  -77.8373 H         1 UNK         0.0743 
     93 H93       -69.9162   27.0185  -79.3199 H         1 UNK         0.0784 
     94 H94       -70.8081   28.3353  -80.0813 H         1 UNK         0.0784 
     95 H95       -69.4649   28.6888  -79.0099 H         1 UNK         0.0784 
     96 H96       -73.3511   27.8729  -78.3796 H         1 UNK         0.3213 
     97 H97       -74.2532   26.0124  -79.8429 H         1 UNK         0.0855 
     98 H98       -73.9354   23.4347  -78.2190 H         1 UNK         0.0814 
     99 H99       -73.3256   23.6889  -79.8505 H         1 UNK         0.0814 
    100 H100      -75.0547   23.6952  -79.5561 H         1 UNK         0.0814 
    101 H101      -75.4924   25.1165  -77.4007 H         1 UNK         0.3105 
    102 H102      -76.3438   28.2520  -76.0828 H         1 UNK         0.0547 
    103 H103      -78.1585   28.0901  -77.7679 H         1 UNK         0.0837 
    104 H104      -78.2707   26.3542  -77.5135 H         1 UNK         0.0837 
    105 H105      -78.7009   27.4690  -76.2180 H         1 UNK         0.0837 
    106 H106      -77.2027   25.6635  -75.3202 H         1 UNK         0.3020 
    107 H107      -74.1611   24.6073  -73.7943 H         1 UNK         0.1245 
    108 H108      -75.1119   26.1594  -72.0411 H         1 UNK         0.0781 
    109 H109      -75.1488   24.4623  -71.6931 H         1 UNK         0.0781 
    110 H110      -76.5001   26.5673  -70.1481 H         1 UNK         0.0836 
    111 H111      -78.1565   26.0912  -69.8985 H         1 UNK         0.0836 
    112 H112      -76.9793   23.7823  -74.1941 H         1 UNK         0.3022 
    113 H113      -75.9482   21.1545  -76.3772 H         1 UNK         0.0747 
    114 H114      -77.2018   19.7348  -74.7764 H         1 UNK         0.0793 
    115 H115      -75.6385   20.1602  -74.1014 H         1 UNK         0.0793 
    116 H116      -77.0854   20.9810  -73.5325 H         1 UNK         0.0793 
    117 H117      -78.5220   21.8260  -75.4034 H         1 UNK         0.3047 
    118 H118      -79.3484   24.3080  -77.7986 H         1 UNK         0.0822 
    119 H119      -81.0252   22.6500  -78.5162 H         1 UNK         0.0807 
    120 H120      -80.1483   21.3534  -77.7023 H         1 UNK         0.0807 
    121 H121      -79.4395   22.1669  -79.0903 H         1 UNK         0.0807 
    122 H122      -81.1164   23.0840  -76.0878 H         1 UNK         0.2946 
    123 H123      -82.0268   24.3614  -74.5003 H         1 UNK         0.1144 
    124 H124      -79.9028   23.8780  -72.3306 H         1 UNK         0.0793 
    125 H125      -80.8725   22.6404  -73.1146 H         1 UNK         0.0793 
    126 H126      -81.6445   23.8314  -72.0800 H         1 UNK         0.0793 
    127 H127      -80.1191   26.3759  -73.4312 H         1 UNK         0.2896 
@<TRIPOS>BOND
     1    1    2 1    
     2    1   67 1    
     3    1   68 1    
     4    1   69 1    
     5    2    3 2    
     6    2    4 am   BACKBONE|DICT|INTERRES
     7    4    5 1    
     8    4   70 1    
     9    5    6 1    
    10    5   65 1    
    11    5   71 1    
    12    6    7 1    
    13    6   72 1    
    14    6   73 1    
    15    7    8 1    
    16    8    9 1    
    17    8   74 1    
    18    8   75 1    
    19    9   10 ar   
    20    9   14 ar   
    21   10   11 ar   
    22   10   76 1    
    23   11   12 ar   
    24   11   48 1    
    25   12   13 ar   
    26   12   77 1    
    27   13   14 ar   
    28   13   15 1    
    29   14   78 1    
    30   15   16 1    
    31   15   79 1    
    32   15   80 1    
    33   16   17 1    
    34   17   18 1    
    35   17   81 1    
    36   17   82 1    
    37   18   19 1    
    38   18   22 1    
    39   18   83 1    
    40   19   20 am   BACKBONE|DICT|INTERRES
    41   19   21 2    
    42   20   84 1    
    43   20   85 1    
    44   22   23 am   BACKBONE|DICT|INTERRES
    45   22   86 1    
    46   23   24 2    
    47   23   25 1    
    48   25   26 1    
    49   25   27 1    
    50   25   87 1    
    51   26   88 1    
    52   26   89 1    
    53   26   90 1    
    54   27   28 am   BACKBONE|DICT|INTERRES
    55   27   91 1    
    56   28   29 2    
    57   28   30 1    
    58   30   31 1    
    59   30   32 1    
    60   30   92 1    
    61   31   93 1    
    62   31   94 1    
    63   31   95 1    
    64   32   33 am   BACKBONE|DICT|INTERRES
    65   32   96 1    
    66   33   34 2    
    67   33   35 1    
    68   35   36 1    
    69   35   37 1    
    70   35   97 1    
    71   36   98 1    
    72   36   99 1    
    73   36  100 1    
    74   37   38 am   BACKBONE|DICT|INTERRES
    75   37  101 1    
    76   38   39 2    
    77   38   40 1    
    78   40   41 1    
    79   40   42 1    
    80   40  102 1    
    81   41  103 1    
    82   41  104 1    
    83   41  105 1    
    84   42   43 am   BACKBONE|DICT|INTERRES
    85   42  106 1    
    86   43   44 2    
    87   43   45 1    
    88   45   46 1    
    89   45   49 1    
    90   45  107 1    
    91   46   47 1    
    92   46  108 1    
    93   46  109 1    
    94   47   48 1    
    95   48  110 1    
    96   48  111 1    
    97   49   50 am   BACKBONE|DICT|INTERRES
    98   49  112 1    
    99   50   51 2    
   100   50   52 1    
   101   52   53 1    
   102   52   54 1    
   103   52  113 1    
   104   53  114 1    
   105   53  115 1    
   106   53  116 1    
   107   54   55 am   BACKBONE|DICT|INTERRES
   108   54  117 1    
   109   55   56 2    
   110   55   57 1    
   111   57   58 1    
   112   57   59 1    
   113   57  118 1    
   114   58  119 1    
   115   58  120 1    
   116   58  121 1    
   117   59   60 am   BACKBONE|DICT|INTERRES
   118   59  122 1    
   119   60   61 2    
   120   60   62 1    
   121   62   63 1    
   122   62   64 1    
   123   62  123 1    
   124   63  124 1    
   125   63  125 1    
   126   63  126 1    
   127   64   65 am   BACKBONE|DICT|INTERRES
   128   64  127 1    
   129   65   66 2    
@<TRIPOS>SUBSTRUCTURE
     1 UNK         1 GROUP             0       ****    0 ROOT    
