@<TRIPOS>MOLECULE
3R135
127   129    1
SMALL
USER_CHARGES


@<TRIPOS>ATOM
      1 CA        -82.4040   25.7554  -71.3613 C.3       0 UNK        -0.1998 
      2 C         -82.1633   26.3476  -72.7417 C.2       0 UNK         0.4909 
      3 O         -81.0800   26.1682  -73.2945 O.2       0 UNK        -0.5240 
      4 N         -83.1657   27.0494  -73.2904 N.am      1 UNK        -0.4739 
      5 CA        -83.1978   27.6757  -74.6206 C.3       1 UNK         0.0864 
      6 C6        -82.5793   29.1106  -74.6643 C.3       11 UNK        -0.0881 
      7 S7        -80.7763   29.2654  -74.3968 S.3       11 UNK        -0.2682 
      8 C8        -80.6830   29.7363  -72.6439 C.3       11 UNK         0.0289 
      9 C9        -79.2977   29.4680  -72.0699 C.ar      11 UNK        -0.0687 
     10 C10       -79.0179   28.2410  -71.4617 C.ar      11 UNK        -0.0823 
     11 C11       -77.7675   27.9944  -70.8885 C.ar      11 UNK        -0.0830 
     12 C12       -76.7870   28.9887  -70.9277 C.ar      11 UNK        -0.1021 
     13 C13       -77.0460   30.2159  -71.5475 C.ar      11 UNK        -0.0753 
     14 C14       -78.3023   30.4487  -72.1195 C.ar      11 UNK        -0.0933 
     15 C15       -75.9820   31.3040  -71.5707 C.3       11 UNK         0.0166 
     16 S16       -74.7822   31.0518  -72.9149 S.3       11 UNK        -0.2615 
     17 C17       -73.6883   29.7776  -72.1942 C.3       11 UNK        -0.0865 
     18 CA        -72.2816   29.7586  -72.8498 C.3       10 UNK         0.0862 
     19 C         -71.3104   28.7772  -72.1291 C.2       10 UNK         0.5551 
     20 N         -70.5260   27.9695  -72.8350 N.am      10 UNK        -0.7319 
     21 O         -71.2517   28.7590  -70.9021 O.2       10 UNK        -0.5018 
     22 N         -72.3723   29.5073  -74.2944 N.am      10 UNK        -0.4509 
     23 C         -71.7255   30.1933  -75.2422 C.2       10 UNK         0.4899 
     24 O         -70.9969   31.1609  -75.0143 O.2       10 UNK        -0.4839 
     25 CA        -71.9313   29.7111  -76.6909 C.3       9 UNK         0.0222 
     26 CB        -70.8718   30.2657  -77.6673 C.3       9 UNK        -0.1966 
     27 N         -72.0345   28.2513  -76.8106 N.am      9 UNK        -0.4218 
     28 C         -71.1087   27.3377  -76.4750 C.2       9 UNK         0.5020 
     29 O         -70.0289   27.6316  -75.9590 O.2       9 UNK        -0.5274 
     30 CA        -71.4254   25.8475  -76.7288 C.3       8 UNK         0.0270 
     31 CB        -71.0584   24.9866  -75.5063 C.3       8 UNK        -0.1976 
     32 N         -72.8239   25.5927  -77.0839 N.am      8 UNK        -0.4313 
     33 C         -73.3705   25.7691  -78.2945 C.2       8 UNK         0.5041 
     34 O         -72.7282   26.0892  -79.2947 O.2       8 UNK        -0.5577 
     35 CA        -74.9017   25.6304  -78.3903 C.3       7 UNK         0.0284 
     36 CB        -75.3014   24.1738  -78.6688 C.3       7 UNK        -0.1958 
     37 N         -75.5943   26.1144  -77.1903 N.am      7 UNK        -0.4454 
     38 C         -75.5630   27.3807  -76.7487 C.2       7 UNK         0.5089 
     39 O         -74.9908   28.2956  -77.3406 O.2       7 UNK        -0.5125 
     40 CA        -76.2255   27.6626  -75.3917 C.3       6 UNK         0.0408 
     41 CB        -77.7342   27.8785  -75.5446 C.3       6 UNK        -0.1791 
     42 N         -75.9902   26.5893  -74.4283 N.am      6 UNK        -0.4762 
     43 C         -74.8048   26.3189  -73.8704 C.2       6 UNK         0.5007 
     44 O         -73.7784   26.9564  -74.1075 O.2       6 UNK        -0.5032 
     45 CA        -74.7488   25.1031  -72.9252 C.3       5 UNK         0.0783 
     46 C46       -75.3015   25.4366  -71.5129 C.3       11 UNK        -0.0857 
     47 S47       -77.1250   25.3409  -71.3790 S.3       11 UNK        -0.2512 
     48 C48       -77.5025   26.6676  -70.1930 C.3       11 UNK         0.0225 
     49 N         -75.3872   23.9171  -73.5074 N.am      5 UNK        -0.4615 
     50 C         -74.9973   23.2985  -74.6284 C.2       4 UNK         0.5053 
     51 O         -74.0001   23.6182  -75.2721 O.2       4 UNK        -0.5105 
     52 CA        -75.8905   22.1550  -75.1441 C.3       4 UNK         0.0263 
     53 CB        -75.4818   20.8243  -74.4930 C.3       4 UNK        -0.1981 
     54 N         -77.3324   22.3678  -74.9588 N.am      4 UNK        -0.4224 
     55 C         -78.0264   23.4335  -75.3856 C.2       3 UNK         0.4895 
     56 O         -77.5067   24.4007  -75.9474 O.2       3 UNK        -0.5091 
     57 CA        -79.5439   23.4121  -75.1144 C.3       3 UNK         0.0250 
     58 CB        -79.8356   23.3219  -73.6059 C.3       3 UNK        -0.1996 
     59 N         -80.2134   24.5961  -75.6669 N.am      3 UNK        -0.4254 
     60 C         -80.4679   24.7784  -76.9724 C.2       2 UNK         0.5004 
     61 O         -80.2965   23.8988  -77.8196 O.2       2 UNK        -0.5226 
     62 CA        -80.9601   26.1710  -77.4261 C.3       2 UNK         0.0269 
     63 CB        -81.8334   26.1120  -78.6986 C.3       2 UNK        -0.1926 
     64 N         -81.6131   26.9612  -76.3748 N.am      2 UNK        -0.4687 
     65 C         -82.7640   26.6984  -75.7417 C.2       1 UNK         0.5165 
     66 O         -83.4797   25.7262  -75.9921 O.2       1 UNK        -0.5079 
     67 H67       -82.2513   24.6769  -71.3869 H         1 UNK         0.0900 
     68 H68       -83.4160   25.9463  -71.0051 H         1 UNK         0.0900 
     69 H69       -81.7049   26.1802  -70.6419 H         1 UNK         0.0900 
     70 H70       -84.0303   27.1269  -72.7733 H         1 UNK         0.2959 
     71 H71       -84.2620   27.8222  -74.8145 H         1 UNK         0.1079 
     72 H72       -82.8023   29.5677  -75.6301 H         1 UNK         0.0837 
     73 H73       -83.0894   29.7412  -73.9347 H         1 UNK         0.0837 
     74 H74       -81.4301   29.1825  -72.0741 H         1 UNK         0.0685 
     75 H75       -80.9391   30.7917  -72.5408 H         1 UNK         0.0685 
     76 H76       -79.7772   27.4741  -71.4271 H         1 UNK         0.1434 
     77 H77       -75.8249   28.8106  -70.4689 H         1 UNK         0.1329 
     78 H78       -78.5112   31.3983  -72.5930 H         1 UNK         0.1335 
     79 H79       -76.4510   32.2797  -71.7069 H         1 UNK         0.0680 
     80 H80       -75.4675   31.3513  -70.6098 H         1 UNK         0.0680 
     81 H81       -73.5980   29.9675  -71.1233 H         1 UNK         0.1032 
     82 H82       -74.1722   28.8063  -72.2922 H         1 UNK         0.1032 
     83 H83       -71.8483   30.7469  -72.6873 H         1 UNK         0.0461 
     84 H84       -70.5330   27.9935  -73.8463 H         1 UNK         0.3453 
     85 H85       -69.8983   27.3478  -72.3513 H         1 UNK         0.3453 
     86 H86       -72.9112   28.6849  -74.5484 H         1 UNK         0.2984 
     87 H87       -72.8992   30.1066  -77.0013 H         1 UNK         0.0554 
     88 H88       -71.0554   29.9264  -78.6866 H         1 UNK         0.0847 
     89 H89       -69.8634   29.9588  -77.3875 H         1 UNK         0.0847 
     90 H90       -70.8864   31.3561  -77.6833 H         1 UNK         0.0847 
     91 H91       -72.9203   27.9204  -77.1765 H         1 UNK         0.3141 
     92 H92       -70.7955   25.5301  -77.5622 H         1 UNK         0.0743 
     93 H93       -70.0014   25.0835  -75.2551 H         1 UNK         0.0784 
     94 H94       -71.6315   25.2764  -74.6249 H         1 UNK         0.0784 
     95 H95       -71.2466   23.9296  -75.6950 H         1 UNK         0.0784 
     96 H96       -73.4184   25.2537  -76.3333 H         1 UNK         0.3213 
     97 H97       -75.2377   26.2427  -79.2298 H         1 UNK         0.0855 
     98 H98       -74.8809   23.8305  -79.6148 H         1 UNK         0.0814 
     99 H99       -76.3841   24.0614  -78.7329 H         1 UNK         0.0814 
    100 H100      -74.9386   23.5029  -77.8911 H         1 UNK         0.0814 
    101 H101      -76.1423   25.4368  -76.6619 H         1 UNK         0.3105 
    102 H102      -75.7917   28.5800  -74.9869 H         1 UNK         0.0547 
    103 H103      -78.2325   27.0022  -75.9581 H         1 UNK         0.0837 
    104 H104      -78.1852   28.0927  -74.5765 H         1 UNK         0.0837 
    105 H105      -77.9471   28.7230  -76.2009 H         1 UNK         0.0837 
    106 H106      -76.7720   25.9841  -74.2178 H         1 UNK         0.3020 
    107 H107      -73.6883   24.8656  -72.8118 H         1 UNK         0.1245 
    108 H108      -74.9525   26.4164  -71.1809 H         1 UNK         0.0781 
    109 H109      -74.8922   24.7251  -70.7942 H         1 UNK         0.0781 
    110 H110      -76.6964   26.7601  -69.4635 H         1 UNK         0.0836 
    111 H111      -78.3878   26.3799  -69.6238 H         1 UNK         0.0836 
    112 H112      -76.2302   23.6046  -73.0481 H         1 UNK         0.3022 
    113 H113      -75.7185   22.0688  -76.2179 H         1 UNK         0.0747 
    114 H114      -76.0207   19.9843  -74.9319 H         1 UNK         0.0793 
    115 H115      -74.4172   20.6316  -74.6345 H         1 UNK         0.0793 
    116 H116      -75.6731   20.8235  -73.4192 H         1 UNK         0.0793 
    117 H117      -77.8361   21.6208  -74.5028 H         1 UNK         0.3047 
    118 H118      -79.9565   22.5245  -75.5985 H         1 UNK         0.0822 
    119 H119      -79.4542   22.3965  -73.1742 H         1 UNK         0.0807 
    120 H120      -80.9077   23.3446  -73.4102 H         1 UNK         0.0807 
    121 H121      -79.3803   24.1485  -73.0595 H         1 UNK         0.0807 
    122 H122      -80.4070   25.3490  -75.0122 H         1 UNK         0.2946 
    123 H123      -80.0540   26.7200  -77.6869 H         1 UNK         0.1144 
    124 H124      -81.2810   25.6782  -79.5331 H         1 UNK         0.0793 
    125 H125      -82.1523   27.1072  -79.0082 H         1 UNK         0.0793 
    126 H126      -82.7255   25.5029  -78.5510 H         1 UNK         0.0793 
    127 H127      -81.0892   27.7586  -76.0316 H         1 UNK         0.2896 
@<TRIPOS>BOND
     1    1    2 1    
     2    1   67 1    
     3    1   68 1    
     4    1   69 1    
     5    2    3 2    
     6    2    4 am   BACKBONE|DICT|INTERRES
     7    4    5 1    
     8    4   70 1    
     9    5    6 1    
    10    5   65 1    
    11    5   71 1    
    12    6    7 1    
    13    6   72 1    
    14    6   73 1    
    15    7    8 1    
    16    8    9 1    
    17    8   74 1    
    18    8   75 1    
    19    9   10 ar   
    20    9   14 ar   
    21   10   11 ar   
    22   10   76 1    
    23   11   12 ar   
    24   11   48 1    
    25   12   13 ar   
    26   12   77 1    
    27   13   14 ar   
    28   13   15 1    
    29   14   78 1    
    30   15   16 1    
    31   15   79 1    
    32   15   80 1    
    33   16   17 1    
    34   17   18 1    
    35   17   81 1    
    36   17   82 1    
    37   18   19 1    
    38   18   22 1    
    39   18   83 1    
    40   19   20 am   BACKBONE|DICT|INTERRES
    41   19   21 2    
    42   20   84 1    
    43   20   85 1    
    44   22   23 am   BACKBONE|DICT|INTERRES
    45   22   86 1    
    46   23   24 2    
    47   23   25 1    
    48   25   26 1    
    49   25   27 1    
    50   25   87 1    
    51   26   88 1    
    52   26   89 1    
    53   26   90 1    
    54   27   28 am   BACKBONE|DICT|INTERRES
    55   27   91 1    
    56   28   29 2    
    57   28   30 1    
    58   30   31 1    
    59   30   32 1    
    60   30   92 1    
    61   31   93 1    
    62   31   94 1    
    63   31   95 1    
    64   32   33 am   BACKBONE|DICT|INTERRES
    65   32   96 1    
    66   33   34 2    
    67   33   35 1    
    68   35   36 1    
    69   35   37 1    
    70   35   97 1    
    71   36   98 1    
    72   36   99 1    
    73   36  100 1    
    74   37   38 am   BACKBONE|DICT|INTERRES
    75   37  101 1    
    76   38   39 2    
    77   38   40 1    
    78   40   41 1    
    79   40   42 1    
    80   40  102 1    
    81   41  103 1    
    82   41  104 1    
    83   41  105 1    
    84   42   43 am   BACKBONE|DICT|INTERRES
    85   42  106 1    
    86   43   44 2    
    87   43   45 1    
    88   45   46 1    
    89   45   49 1    
    90   45  107 1    
    91   46   47 1    
    92   46  108 1    
    93   46  109 1    
    94   47   48 1    
    95   48  110 1    
    96   48  111 1    
    97   49   50 am   BACKBONE|DICT|INTERRES
    98   49  112 1    
    99   50   51 2    
   100   50   52 1    
   101   52   53 1    
   102   52   54 1    
   103   52  113 1    
   104   53  114 1    
   105   53  115 1    
   106   53  116 1    
   107   54   55 am   BACKBONE|DICT|INTERRES
   108   54  117 1    
   109   55   56 2    
   110   55   57 1    
   111   57   58 1    
   112   57   59 1    
   113   57  118 1    
   114   58  119 1    
   115   58  120 1    
   116   58  121 1    
   117   59   60 am   BACKBONE|DICT|INTERRES
   118   59  122 1    
   119   60   61 2    
   120   60   62 1    
   121   62   63 1    
   122   62   64 1    
   123   62  123 1    
   124   63  124 1    
   125   63  125 1    
   126   63  126 1    
   127   64   65 am   BACKBONE|DICT|INTERRES
   128   64  127 1    
   129   65   66 2    
@<TRIPOS>SUBSTRUCTURE
     1 UNK         1 GROUP             0       ****    0 ROOT    
