@<TRIPOS>MOLECULE
3R135
127   129    1
SMALL
USER_CHARGES


@<TRIPOS>ATOM
      1 CA        -84.1158   26.9826  -72.4184 C.3       0 UNK        -0.1998 
      2 C         -82.9093   27.6961  -73.0100 C.2       0 UNK         0.4909 
      3 O         -82.6042   28.8202  -72.6111 O.2       0 UNK        -0.5240 
      4 N         -82.2235   27.0520  -73.9584 N.am      1 UNK        -0.4739 
      5 CA        -81.0630   27.5694  -74.6803 C.3       1 UNK         0.0864 
      6 C6        -79.7723   27.5963  -73.8135 C.3       11 UNK        -0.0881 
      7 S7        -78.6482   28.9487  -74.3129 S.3       11 UNK        -0.2682 
      8 C8        -78.2991   29.7752  -72.7266 C.3       11 UNK         0.0289 
      9 C9        -77.1370   29.1154  -71.9973 C.ar      11 UNK        -0.0687 
     10 C10       -77.3231   27.9089  -71.3180 C.ar      11 UNK        -0.0823 
     11 C11       -76.2496   27.2762  -70.6861 C.ar      11 UNK        -0.0830 
     12 C12       -74.9923   27.8864  -70.6840 C.ar      11 UNK        -0.1021 
     13 C13       -74.7967   29.1043  -71.3414 C.ar      11 UNK        -0.0753 
     14 C14       -75.8689   29.7052  -72.0100 C.ar      11 UNK        -0.0933 
     15 C15       -73.4196   29.7488  -71.3693 C.3       11 UNK         0.0166 
     16 S16       -73.4041   31.3537  -70.5082 S.3       11 UNK        -0.2615 
     17 C17       -71.6867   31.9085  -70.7966 C.3       11 UNK        -0.0865 
     18 CA        -71.5796   33.0157  -71.8897 C.3       10 UNK         0.0862 
     19 C         -70.1698   33.6835  -71.9370 C.2       10 UNK         0.5551 
     20 N         -69.6923   34.1324  -73.0915 N.am      10 UNK        -0.7319 
     21 O         -69.5109   33.8293  -70.9100 O.2       10 UNK        -0.5018 
     22 N         -72.1064   32.5794  -73.1980 N.am      10 UNK        -0.4509 
     23 C         -71.6092   31.5894  -73.9490 C.2       10 UNK         0.4899 
     24 O         -70.5810   30.9614  -73.6841 O.2       10 UNK        -0.4839 
     25 CA        -72.4125   31.2164  -75.1981 C.3       9 UNK         0.0222 
     26 CB        -71.8345   31.9012  -76.4474 C.3       9 UNK        -0.1966 
     27 N         -72.3382   29.7659  -75.3549 N.am      9 UNK        -0.4218 
     28 C         -73.3820   28.9414  -75.4863 C.2       9 UNK         0.5020 
     29 O         -74.5535   29.3163  -75.5792 O.2       9 UNK        -0.5274 
     30 CA        -73.0523   27.4369  -75.4619 C.3       8 UNK         0.0270 
     31 CB        -73.0561   26.9184  -74.0136 C.3       8 UNK        -0.1976 
     32 N         -73.9908   26.6420  -76.2584 N.am      8 UNK        -0.4313 
     33 C         -74.1425   26.7441  -77.5875 C.2       8 UNK         0.5041 
     34 O         -73.4300   27.4552  -78.3003 O.2       8 UNK        -0.5577 
     35 CA        -75.2852   25.9263  -78.2250 C.3       7 UNK         0.0284 
     36 CB        -75.1421   25.7625  -79.7532 C.3       7 UNK        -0.1958 
     37 N         -75.5128   24.6294  -77.5792 N.am      7 UNK        -0.4454 
     38 C         -74.6488   23.6107  -77.4650 C.2       7 UNK         0.5089 
     39 O         -73.5218   23.6103  -77.9633 O.2       7 UNK        -0.5125 
     40 CA        -75.1250   22.3849  -76.6529 C.3       6 UNK         0.0408 
     41 CB        -73.9436   21.5762  -76.0774 C.3       6 UNK        -0.1791 
     42 N         -76.0915   22.6787  -75.5826 N.am      6 UNK        -0.4762 
     43 C         -75.9516   23.5564  -74.5732 C.2       6 UNK         0.5007 
     44 O         -75.0088   24.3430  -74.4850 O.2       6 UNK        -0.5032 
     45 CA        -77.0661   23.5560  -73.5074 C.3       5 UNK         0.0783 
     46 C46       -77.0580   24.7866  -72.5631 C.3       11 UNK        -0.0857 
     47 S47       -75.9065   24.5767  -71.1608 S.3       11 UNK        -0.2512 
     48 C48       -76.4417   25.9122  -70.0426 C.3       11 UNK         0.0225 
     49 N         -78.3640   23.3630  -74.1546 N.am      5 UNK        -0.4615 
     50 C         -79.3321   22.5624  -73.6892 C.2       4 UNK         0.5053 
     51 O         -79.2637   21.9647  -72.6151 O.2       4 UNK        -0.5105 
     52 CA        -80.5870   22.3727  -74.5635 C.3       4 UNK         0.0263 
     53 CB        -81.7511   23.2058  -74.0047 C.3       4 UNK        -0.1981 
     54 N         -80.3778   22.7009  -75.9786 N.am      4 UNK        -0.4224 
     55 C         -79.5611   22.0237  -76.8029 C.2       3 UNK         0.4895 
     56 O         -78.9370   21.0174  -76.4651 O.2       3 UNK        -0.5091 
     57 CA        -79.3537   22.5739  -78.2274 C.3       3 UNK         0.0250 
     58 CB        -80.1981   21.7786  -79.2357 C.3       3 UNK        -0.1996 
     59 N         -79.6348   24.0044  -78.3887 N.am      3 UNK        -0.4254 
     60 C         -79.0498   24.9992  -77.7082 C.2       2 UNK         0.5004 
     61 O         -78.2095   24.8149  -76.8234 O.2       2 UNK        -0.5226 
     62 CA        -79.4963   26.4403  -78.0246 C.3       2 UNK         0.0269 
     63 CB        -80.5770   26.5509  -79.1250 C.3       2 UNK        -0.1926 
     64 N         -79.9306   27.1314  -76.8058 N.am      2 UNK        -0.4687 
     65 C         -80.8866   26.7285  -75.9573 C.2       1 UNK         0.5165 
     66 O         -81.5895   25.7273  -76.1370 O.2       1 UNK        -0.5079 
     67 H67       -83.9917   26.8659  -71.3421 H         1 UNK         0.0900 
     68 H68       -85.0202   27.5637  -72.5967 H         1 UNK         0.0900 
     69 H69       -84.2568   25.9927  -72.8523 H         1 UNK         0.0900 
     70 H70       -82.5419   26.1575  -74.3128 H         1 UNK         0.2959 
     71 H71       -81.3153   28.5838  -74.9986 H         1 UNK         0.1079 
     72 H72       -79.2362   26.6456  -73.8496 H         1 UNK         0.0837 
     73 H73       -80.0365   27.7394  -72.7662 H         1 UNK         0.0837 
     74 H74       -79.1889   29.7850  -72.0953 H         1 UNK         0.0685 
     75 H75       -78.0654   30.8213  -72.9300 H         1 UNK         0.0685 
     76 H76       -78.2963   27.4406  -71.3104 H         1 UNK         0.1434 
     77 H77       -74.1619   27.3971  -70.1934 H         1 UNK         0.1329 
     78 H78       -75.7117   30.6346  -72.5401 H         1 UNK         0.1335 
     79 H79       -72.6739   29.0934  -70.9167 H         1 UNK         0.0680 
     80 H80       -73.1268   29.8793  -72.4086 H         1 UNK         0.0680 
     81 H81       -71.3169   32.2841  -69.8408 H         1 UNK         0.1032 
     82 H82       -71.0510   31.0562  -71.0413 H         1 UNK         0.1032 
     83 H83       -72.2402   33.8261  -71.5792 H         1 UNK         0.0461 
     84 H84       -68.7860   34.5727  -73.1151 H         1 UNK         0.3453 
     85 H85       -70.2267   34.0265  -73.9385 H         1 UNK         0.3453 
     86 H86       -72.9442   33.0521  -73.5061 H         1 UNK         0.2984 
     87 H87       -73.4478   31.5360  -75.0605 H         1 UNK         0.0554 
     88 H88       -71.8862   32.9871  -76.3582 H         1 UNK         0.0847 
     89 H89       -72.3912   31.6229  -77.3424 H         1 UNK         0.0847 
     90 H90       -70.7888   31.6352  -76.6084 H         1 UNK         0.0847 
     91 H91       -71.4172   29.3742  -75.2043 H         1 UNK         0.3141 
     92 H92       -72.0555   27.2909  -75.8833 H         1 UNK         0.0743 
     93 H93       -72.3601   27.4802  -73.3894 H         1 UNK         0.0784 
     94 H94       -72.7580   25.8709  -73.9661 H         1 UNK         0.0784 
     95 H95       -74.0447   27.0041  -73.5589 H         1 UNK         0.0784 
     96 H96       -74.5808   25.9958  -75.7452 H         1 UNK         0.3213 
     97 H97       -76.1882   26.5101  -78.0449 H         1 UNK         0.0855 
     98 H98       -74.2245   25.2370  -80.0193 H         1 UNK         0.0814 
     99 H99       -75.1153   26.7331  -80.2499 H         1 UNK         0.0814 
    100 H100      -75.9814   25.2084  -80.1732 H         1 UNK         0.0814 
    101 H101      -76.4217   24.5319  -77.1292 H         1 UNK         0.3105 
    102 H102      -75.6497   21.7437  -77.3626 H         1 UNK         0.0547 
    103 H103      -74.2899   20.6951  -75.5376 H         1 UNK         0.0837 
    104 H104      -73.3436   22.1759  -75.3920 H         1 UNK         0.0837 
    105 H105      -73.2809   21.2259  -76.8697 H         1 UNK         0.0837 
    106 H106      -76.9243   22.1030  -75.5869 H         1 UNK         0.3020 
    107 H107      -76.8587   22.6691  -72.9035 H         1 UNK         0.1245 
    108 H108      -78.0525   24.9348  -72.1395 H         1 UNK         0.0781 
    109 H109      -76.8230   25.7049  -73.1051 H         1 UNK         0.0781 
    110 H110      -75.8650   25.8556  -69.1182 H         1 UNK         0.0836 
    111 H111      -77.4848   25.7580  -69.7617 H         1 UNK         0.0836 
    112 H112      -78.4807   23.8235  -75.0528 H         1 UNK         0.3022 
    113 H113      -80.8665   21.3184  -74.5097 H         1 UNK         0.0747 
    114 H114      -82.6409   23.1258  -74.6294 H         1 UNK         0.0793 
    115 H115      -82.0246   22.8663  -73.0047 H         1 UNK         0.0793 
    116 H116      -81.4850   24.2590  -73.9233 H         1 UNK         0.0793 
    117 H117      -80.8319   23.5388  -76.3220 H         1 UNK         0.3047 
    118 H118      -78.2999   22.4251  -78.4726 H         1 UNK         0.0822 
    119 H119      -79.9805   22.0782  -80.2611 H         1 UNK         0.0807 
    120 H120      -81.2666   21.9155  -79.0638 H         1 UNK         0.0807 
    121 H121      -79.9908   20.7098  -79.1631 H         1 UNK         0.0807 
    122 H122      -80.3362   24.2490  -79.0728 H         1 UNK         0.2946 
    123 H123      -78.6062   26.9603  -78.3812 H         1 UNK         0.1144 
    124 H124      -80.8248   27.5942  -79.3211 H         1 UNK         0.0793 
    125 H125      -81.5028   26.0432  -78.8513 H         1 UNK         0.0793 
    126 H126      -80.2283   26.1289  -80.0687 H         1 UNK         0.0793 
    127 H127      -79.3713   27.9291  -76.5313 H         1 UNK         0.2896 
@<TRIPOS>BOND
     1    1    2 1    
     2    1   67 1    
     3    1   68 1    
     4    1   69 1    
     5    2    3 2    
     6    2    4 am   BACKBONE|DICT|INTERRES
     7    4    5 1    
     8    4   70 1    
     9    5    6 1    
    10    5   65 1    
    11    5   71 1    
    12    6    7 1    
    13    6   72 1    
    14    6   73 1    
    15    7    8 1    
    16    8    9 1    
    17    8   74 1    
    18    8   75 1    
    19    9   10 ar   
    20    9   14 ar   
    21   10   11 ar   
    22   10   76 1    
    23   11   12 ar   
    24   11   48 1    
    25   12   13 ar   
    26   12   77 1    
    27   13   14 ar   
    28   13   15 1    
    29   14   78 1    
    30   15   16 1    
    31   15   79 1    
    32   15   80 1    
    33   16   17 1    
    34   17   18 1    
    35   17   81 1    
    36   17   82 1    
    37   18   19 1    
    38   18   22 1    
    39   18   83 1    
    40   19   20 am   BACKBONE|DICT|INTERRES
    41   19   21 2    
    42   20   84 1    
    43   20   85 1    
    44   22   23 am   BACKBONE|DICT|INTERRES
    45   22   86 1    
    46   23   24 2    
    47   23   25 1    
    48   25   26 1    
    49   25   27 1    
    50   25   87 1    
    51   26   88 1    
    52   26   89 1    
    53   26   90 1    
    54   27   28 am   BACKBONE|DICT|INTERRES
    55   27   91 1    
    56   28   29 2    
    57   28   30 1    
    58   30   31 1    
    59   30   32 1    
    60   30   92 1    
    61   31   93 1    
    62   31   94 1    
    63   31   95 1    
    64   32   33 am   BACKBONE|DICT|INTERRES
    65   32   96 1    
    66   33   34 2    
    67   33   35 1    
    68   35   36 1    
    69   35   37 1    
    70   35   97 1    
    71   36   98 1    
    72   36   99 1    
    73   36  100 1    
    74   37   38 am   BACKBONE|DICT|INTERRES
    75   37  101 1    
    76   38   39 2    
    77   38   40 1    
    78   40   41 1    
    79   40   42 1    
    80   40  102 1    
    81   41  103 1    
    82   41  104 1    
    83   41  105 1    
    84   42   43 am   BACKBONE|DICT|INTERRES
    85   42  106 1    
    86   43   44 2    
    87   43   45 1    
    88   45   46 1    
    89   45   49 1    
    90   45  107 1    
    91   46   47 1    
    92   46  108 1    
    93   46  109 1    
    94   47   48 1    
    95   48  110 1    
    96   48  111 1    
    97   49   50 am   BACKBONE|DICT|INTERRES
    98   49  112 1    
    99   50   51 2    
   100   50   52 1    
   101   52   53 1    
   102   52   54 1    
   103   52  113 1    
   104   53  114 1    
   105   53  115 1    
   106   53  116 1    
   107   54   55 am   BACKBONE|DICT|INTERRES
   108   54  117 1    
   109   55   56 2    
   110   55   57 1    
   111   57   58 1    
   112   57   59 1    
   113   57  118 1    
   114   58  119 1    
   115   58  120 1    
   116   58  121 1    
   117   59   60 am   BACKBONE|DICT|INTERRES
   118   59  122 1    
   119   60   61 2    
   120   60   62 1    
   121   62   63 1    
   122   62   64 1    
   123   62  123 1    
   124   63  124 1    
   125   63  125 1    
   126   63  126 1    
   127   64   65 am   BACKBONE|DICT|INTERRES
   128   64  127 1    
   129   65   66 2    
@<TRIPOS>SUBSTRUCTURE
     1 UNK         1 GROUP             0       ****    0 ROOT    
