@<TRIPOS>MOLECULE
3R135
127   129    1
SMALL
USER_CHARGES


@<TRIPOS>ATOM
      1 CA        -80.6659   25.1591  -70.8557 C.3       0 UNK        -0.1998 
      2 C         -81.8002   25.5963  -71.7705 C.2       0 UNK         0.4909 
      3 O         -82.8137   24.9037  -71.8627 O.2       0 UNK        -0.5240 
      4 N         -81.6367   26.7378  -72.4525 N.am      1 UNK        -0.4739 
      5 CA        -82.5927   27.2801  -73.4292 C.3       1 UNK         0.0864 
      6 C6        -82.4319   28.8154  -73.6019 C.3       11 UNK        -0.0881 
      7 S7        -80.7197   29.3535  -73.9593 S.3       11 UNK        -0.2682 
      8 C8        -80.2405   30.2258  -72.4340 C.3       11 UNK         0.0289 
      9 C9        -78.8058   29.8991  -72.0470 C.ar      11 UNK        -0.0687 
     10 C10       -78.5468   28.8411  -71.1715 C.ar      11 UNK        -0.0823 
     11 C11       -77.2358   28.5272  -70.8048 C.ar      11 UNK        -0.0830 
     12 C12       -76.1803   29.2893  -71.3111 C.ar      11 UNK        -0.1021 
     13 C13       -76.4195   30.3441  -72.1956 C.ar      11 UNK        -0.0753 
     14 C14       -77.7390   30.6503  -72.5534 C.ar      11 UNK        -0.0933 
     15 C15       -75.2452   31.1457  -72.7466 C.3       11 UNK         0.0166 
     16 S16       -75.2306   31.1624  -74.5647 S.3       11 UNK        -0.2615 
     17 C17       -73.4922   31.5668  -74.9450 C.3       11 UNK        -0.0865 
     18 CA        -72.7735   30.3827  -75.6548 C.3       10 UNK         0.0862 
     19 C         -71.4474   30.7811  -76.3668 C.2       10 UNK         0.5551 
     20 N         -70.7489   29.8287  -76.9729 N.am      10 UNK        -0.7319 
     21 O         -71.0485   31.9437  -76.3814 O.2       10 UNK        -0.5018 
     22 N         -72.6312   29.1941  -74.7967 N.am      10 UNK        -0.4509 
     23 C         -71.7973   29.0620  -73.7542 C.2       10 UNK         0.4899 
     24 O         -71.1035   29.9757  -73.3073 O.2       10 UNK        -0.4839 
     25 CA        -71.6960   27.6724  -73.1025 C.3       9 UNK         0.0222 
     26 CB        -72.5303   27.6145  -71.8132 C.3       9 UNK        -0.1966 
     27 N         -72.1368   26.6153  -74.0164 N.am      9 UNK        -0.4218 
     28 C         -71.3170   25.8458  -74.7448 C.2       9 UNK         0.5020 
     29 O         -70.0884   25.8738  -74.6573 O.2       9 UNK        -0.5274 
     30 CA        -71.9710   24.8810  -75.7519 C.3       8 UNK         0.0270 
     31 CB        -72.4905   23.6274  -75.0338 C.3       8 UNK        -0.1976 
     32 N         -73.0522   25.4685  -76.5512 N.am      8 UNK        -0.4313 
     33 C         -72.9221   26.5320  -77.3604 C.2       8 UNK         0.5041 
     34 O         -71.8908   27.1959  -77.4691 O.2       8 UNK        -0.5577 
     35 CA        -74.1591   26.9454  -78.1649 C.3       7 UNK         0.0284 
     36 CB        -74.3956   25.9979  -79.3536 C.3       7 UNK        -0.1958 
     37 N         -75.3309   26.9665  -77.2903 N.am      7 UNK        -0.4454 
     38 C         -75.9541   28.0832  -76.8968 C.2       7 UNK         0.5089 
     39 O         -75.7166   29.1956  -77.3662 O.2       7 UNK        -0.5125 
     40 CA        -77.0425   27.9521  -75.8165 C.3       6 UNK         0.0408 
     41 CB        -78.4271   28.0346  -76.4775 C.3       6 UNK        -0.1791 
     42 N         -76.9678   26.7441  -74.9828 N.am      6 UNK        -0.4762 
     43 C         -75.9649   26.4274  -74.1481 C.2       6 UNK         0.5007 
     44 O         -74.8974   27.0374  -74.1203 O.2       6 UNK        -0.5032 
     45 CA        -76.1452   25.1875  -73.2470 C.3       5 UNK         0.0783 
     46 C46       -76.9754   25.4774  -71.9716 C.3       11 UNK        -0.0857 
     47 S47       -75.9248   26.0773  -70.6066 S.3       11 UNK        -0.2512 
     48 C48       -76.9597   27.3727  -69.8519 C.3       11 UNK         0.0225 
     49 N         -76.7095   24.0868  -74.0236 N.am      5 UNK        -0.4615 
     50 C         -76.1775   22.8619  -74.1155 C.2       4 UNK         0.5053 
     51 O         -75.2714   22.4533  -73.3897 O.2       4 UNK        -0.5105 
     52 CA        -76.7171   21.9323  -75.2227 C.3       4 UNK         0.0263 
     53 CB        -77.6547   20.8742  -74.6190 C.3       4 UNK        -0.1981 
     54 N         -77.4167   22.6171  -76.3163 N.am      4 UNK        -0.4224 
     55 C         -76.9315   23.6149  -77.0700 C.2       3 UNK         0.4895 
     56 O         -75.7834   24.0577  -76.9784 O.2       3 UNK        -0.5091 
     57 CA        -77.9242   24.3025  -78.0258 C.3       3 UNK         0.0250 
     58 CB        -77.8576   23.6496  -79.4148 C.3       3 UNK        -0.1996 
     59 N         -79.3287   24.3601  -77.5775 N.am      3 UNK        -0.4254 
     60 C         -79.7766   24.7594  -76.3762 C.2       2 UNK         0.5004 
     61 O         -79.0447   25.0003  -75.4110 O.2       2 UNK        -0.5226 
     62 CA        -81.2924   24.9131  -76.2119 C.3       2 UNK         0.0269 
     63 CB        -81.9760   23.5428  -76.0612 C.3       2 UNK        -0.1926 
     64 N         -81.5319   25.7138  -75.0143 N.am      2 UNK        -0.4687 
     65 C         -82.5683   26.5275  -74.7828 C.2       1 UNK         0.5165 
     66 O         -83.4925   26.6885  -75.5816 O.2       1 UNK        -0.5079 
     67 H67       -80.2436   24.2178  -71.2065 H         1 UNK         0.0900 
     68 H68       -81.0376   25.0093  -69.8424 H         1 UNK         0.0900 
     69 H69       -79.8655   25.8955  -70.8153 H         1 UNK         0.0900 
     70 H70       -80.7835   27.2696  -72.3590 H         1 UNK         0.2959 
     71 H71       -83.5963   27.1129  -73.0307 H         1 UNK         0.1079 
     72 H72       -83.0799   29.1831  -74.4001 H         1 UNK         0.0837 
     73 H73       -82.7888   29.3162  -72.7013 H         1 UNK         0.0837 
     74 H74       -80.3573   31.3000  -72.5844 H         1 UNK         0.0685 
     75 H75       -80.9067   29.9587  -71.6126 H         1 UNK         0.0685 
     76 H76       -79.3695   28.2673  -70.7699 H         1 UNK         0.1434 
     77 H77       -75.1685   29.0518  -71.0164 H         1 UNK         0.1329 
     78 H78       -77.9335   31.4664  -73.2357 H         1 UNK         0.1335 
     79 H79       -74.3021   30.7272  -72.3908 H         1 UNK         0.0680 
     80 H80       -75.2955   32.1699  -72.3753 H         1 UNK         0.0680 
     81 H81       -73.5085   32.4456  -75.5919 H         1 UNK         0.1032 
     82 H82       -72.9556   31.8681  -74.0444 H         1 UNK         0.1032 
     83 H83       -73.4194   30.0715  -76.4750 H         1 UNK         0.0461 
     84 H84       -71.0999   28.8747  -77.0176 H         1 UNK         0.3453 
     85 H85       -69.8879   30.0674  -77.4378 H         1 UNK         0.3453 
     86 H86       -73.1961   28.3993  -75.0572 H         1 UNK         0.2984 
     87 H87       -70.6509   27.5174  -72.8270 H         1 UNK         0.0554 
     88 H88       -72.4225   26.6520  -71.3131 H         1 UNK         0.0847 
     89 H89       -73.5894   27.7677  -72.0130 H         1 UNK         0.0847 
     90 H90       -72.2165   28.3850  -71.1079 H         1 UNK         0.0847 
     91 H91       -73.1430   26.5494  -74.1561 H         1 UNK         0.3141 
     92 H92       -71.1947   24.5687  -76.4535 H         1 UNK         0.0743 
     93 H93       -73.2517   23.8797  -74.2967 H         1 UNK         0.0784 
     94 H94       -72.9229   22.9117  -75.7335 H         1 UNK         0.0784 
     95 H95       -71.6838   23.1180  -74.5049 H         1 UNK         0.0784 
     96 H96       -73.9291   24.9593  -76.5662 H         1 UNK         0.3213 
     97 H97       -73.9648   27.9403  -78.5719 H         1 UNK         0.0855 
     98 H98       -74.5114   24.9601  -79.0427 H         1 UNK         0.0814 
     99 H99       -73.5542   26.0333  -80.0467 H         1 UNK         0.0814 
    100 H100      -75.2875   26.2807  -79.9126 H         1 UNK         0.0814 
    101 H101      -75.6080   26.0845  -76.8756 H         1 UNK         0.3105 
    102 H102      -76.9420   28.8018  -75.1391 H         1 UNK         0.0547 
    103 H103      -78.6085   29.0371  -76.8666 H         1 UNK         0.0837 
    104 H104      -78.5227   27.3431  -77.3136 H         1 UNK         0.0837 
    105 H105      -79.2244   27.8103  -75.7724 H         1 UNK         0.0837 
    106 H106      -77.7965   26.1526  -75.0008 H         1 UNK         0.3020 
    107 H107      -75.1364   24.9024  -72.9385 H         1 UNK         0.1245 
    108 H108      -77.4494   24.5617  -71.6144 H         1 UNK         0.0781 
    109 H109      -77.7919   26.1708  -72.1774 H         1 UNK         0.0781 
    110 H110      -76.4498   27.7588  -68.9683 H         1 UNK         0.0836 
    111 H111      -77.8879   26.9231  -69.4963 H         1 UNK         0.0836 
    112 H112      -77.4895   24.3192  -74.6322 H         1 UNK         0.3022 
    113 H113      -75.8554   21.4236  -75.6592 H         1 UNK         0.0747 
    114 H114      -77.9666   20.1450  -75.3669 H         1 UNK         0.0793 
    115 H115      -77.1584   20.3219  -73.8195 H         1 UNK         0.0793 
    116 H116      -78.5517   21.3270  -74.1940 H         1 UNK         0.0793 
    117 H117      -78.3800   22.3534  -76.4622 H         1 UNK         0.3047 
    118 H118      -77.5875   25.3342  -78.1325 H         1 UNK         0.0822 
    119 H119      -78.4383   24.2111  -80.1470 H         1 UNK         0.0807 
    120 H120      -78.2350   22.6264  -79.3987 H         1 UNK         0.0807 
    121 H121      -76.8306   23.6129  -79.7820 H         1 UNK         0.0807 
    122 H122      -80.0169   24.1598  -78.2898 H         1 UNK         0.2946 
    123 H123      -81.6857   25.4361  -77.0867 H         1 UNK         0.1144 
    124 H124      -81.8182   22.9214  -76.9434 H         1 UNK         0.0793 
    125 H125      -83.0531   23.6508  -75.9325 H         1 UNK         0.0793 
    126 H126      -81.5918   22.9947  -75.1997 H         1 UNK         0.0793 
    127 H127      -80.7798   25.6778  -74.3383 H         1 UNK         0.2896 
@<TRIPOS>BOND
     1    1    2 1    
     2    1   67 1    
     3    1   68 1    
     4    1   69 1    
     5    2    3 2    
     6    2    4 am   BACKBONE|DICT|INTERRES
     7    4    5 1    
     8    4   70 1    
     9    5    6 1    
    10    5   65 1    
    11    5   71 1    
    12    6    7 1    
    13    6   72 1    
    14    6   73 1    
    15    7    8 1    
    16    8    9 1    
    17    8   74 1    
    18    8   75 1    
    19    9   10 ar   
    20    9   14 ar   
    21   10   11 ar   
    22   10   76 1    
    23   11   12 ar   
    24   11   48 1    
    25   12   13 ar   
    26   12   77 1    
    27   13   14 ar   
    28   13   15 1    
    29   14   78 1    
    30   15   16 1    
    31   15   79 1    
    32   15   80 1    
    33   16   17 1    
    34   17   18 1    
    35   17   81 1    
    36   17   82 1    
    37   18   19 1    
    38   18   22 1    
    39   18   83 1    
    40   19   20 am   BACKBONE|DICT|INTERRES
    41   19   21 2    
    42   20   84 1    
    43   20   85 1    
    44   22   23 am   BACKBONE|DICT|INTERRES
    45   22   86 1    
    46   23   24 2    
    47   23   25 1    
    48   25   26 1    
    49   25   27 1    
    50   25   87 1    
    51   26   88 1    
    52   26   89 1    
    53   26   90 1    
    54   27   28 am   BACKBONE|DICT|INTERRES
    55   27   91 1    
    56   28   29 2    
    57   28   30 1    
    58   30   31 1    
    59   30   32 1    
    60   30   92 1    
    61   31   93 1    
    62   31   94 1    
    63   31   95 1    
    64   32   33 am   BACKBONE|DICT|INTERRES
    65   32   96 1    
    66   33   34 2    
    67   33   35 1    
    68   35   36 1    
    69   35   37 1    
    70   35   97 1    
    71   36   98 1    
    72   36   99 1    
    73   36  100 1    
    74   37   38 am   BACKBONE|DICT|INTERRES
    75   37  101 1    
    76   38   39 2    
    77   38   40 1    
    78   40   41 1    
    79   40   42 1    
    80   40  102 1    
    81   41  103 1    
    82   41  104 1    
    83   41  105 1    
    84   42   43 am   BACKBONE|DICT|INTERRES
    85   42  106 1    
    86   43   44 2    
    87   43   45 1    
    88   45   46 1    
    89   45   49 1    
    90   45  107 1    
    91   46   47 1    
    92   46  108 1    
    93   46  109 1    
    94   47   48 1    
    95   48  110 1    
    96   48  111 1    
    97   49   50 am   BACKBONE|DICT|INTERRES
    98   49  112 1    
    99   50   51 2    
   100   50   52 1    
   101   52   53 1    
   102   52   54 1    
   103   52  113 1    
   104   53  114 1    
   105   53  115 1    
   106   53  116 1    
   107   54   55 am   BACKBONE|DICT|INTERRES
   108   54  117 1    
   109   55   56 2    
   110   55   57 1    
   111   57   58 1    
   112   57   59 1    
   113   57  118 1    
   114   58  119 1    
   115   58  120 1    
   116   58  121 1    
   117   59   60 am   BACKBONE|DICT|INTERRES
   118   59  122 1    
   119   60   61 2    
   120   60   62 1    
   121   62   63 1    
   122   62   64 1    
   123   62  123 1    
   124   63  124 1    
   125   63  125 1    
   126   63  126 1    
   127   64   65 am   BACKBONE|DICT|INTERRES
   128   64  127 1    
   129   65   66 2    
@<TRIPOS>SUBSTRUCTURE
     1 UNK         1 GROUP             0       ****    0 ROOT    
