@<TRIPOS>MOLECULE
3R135
127   129    1
SMALL
USER_CHARGES


@<TRIPOS>ATOM
      1 CA        -79.5827   29.9587  -76.2368 C.3       0 UNK        -0.1998 
      2 C         -80.3553   29.0140  -75.3291 C.2       0 UNK         0.4909 
      3 O         -81.5670   28.8665  -75.4899 O.2       0 UNK        -0.5240 
      4 N         -79.6555   28.3645  -74.3895 N.am      1 UNK        -0.4739 
      5 CA        -80.1463   27.4572  -73.3359 C.3       1 UNK         0.0864 
      6 C6        -81.1566   28.0976  -72.3410 C.3       11 UNK        -0.0881 
      7 S7        -80.7091   29.7705  -71.7496 S.3       11 UNK        -0.2682 
      8 C8        -79.4958   29.4339  -70.4310 C.3       11 UNK         0.0289 
      9 C9        -78.1605   28.9640  -70.9916 C.ar      11 UNK        -0.0687 
     10 C10       -77.6719   27.6925  -70.6772 C.ar      11 UNK        -0.0823 
     11 C11       -76.4767   27.2334  -71.2386 C.ar      11 UNK        -0.0830 
     12 C12       -75.7491   28.0693  -72.0921 C.ar      11 UNK        -0.1021 
     13 C13       -76.2202   29.3480  -72.4012 C.ar      11 UNK        -0.0753 
     14 C14       -77.4234   29.7915  -71.8454 C.ar      11 UNK        -0.0933 
     15 C15       -75.4383   30.2446  -73.3467 C.3       11 UNK         0.0166 
     16 S16       -74.4013   31.4145  -72.4240 S.3       11 UNK        -0.2615 
     17 C17       -73.5519   32.2865  -73.7880 C.3       11 UNK        -0.0865 
     18 CA        -72.0096   32.3346  -73.6297 C.3       10 UNK         0.0862 
     19 C         -71.5717   33.2511  -72.4466 C.2       10 UNK         0.5551 
     20 N         -70.9360   32.7335  -71.4021 N.am      10 UNK        -0.7319 
     21 O         -71.8046   34.4570  -72.4874 O.2       10 UNK        -0.5018 
     22 N         -71.4177   30.9863  -73.6509 N.am      10 UNK        -0.4509 
     23 C         -70.1229   30.7171  -73.8538 C.2       10 UNK         0.4899 
     24 O         -69.2702   31.5776  -74.0738 O.2       10 UNK        -0.4839 
     25 CA        -69.6981   29.2395  -73.8249 C.3       9 UNK         0.0222 
     26 CB        -69.7550   28.6573  -72.3975 C.3       9 UNK        -0.1966 
     27 N         -70.4128   28.4025  -74.7983 N.am      9 UNK        -0.4218 
     28 C         -71.7005   28.0313  -74.7997 C.2       9 UNK         0.5020 
     29 O         -72.5077   28.3164  -73.9115 O.2       9 UNK        -0.5274 
     30 CA        -72.1372   27.1605  -75.9909 C.3       8 UNK         0.0270 
     31 CB        -71.7887   25.6870  -75.7257 C.3       8 UNK        -0.1976 
     32 N         -73.5693   27.2735  -76.2814 N.am      8 UNK        -0.4313 
     33 C         -74.1681   28.3843  -76.7392 C.2       8 UNK         0.5041 
     34 O         -73.5556   29.4221  -76.9999 O.2       8 UNK        -0.5577 
     35 CA        -75.7012   28.3447  -76.9331 C.3       7 UNK         0.0284 
     36 CB        -76.1852   29.3321  -78.0166 C.3       7 UNK        -0.1958 
     37 N         -76.2425   27.0011  -77.1751 N.am      7 UNK        -0.4454 
     38 C         -75.9611   26.1697  -78.1912 C.2       7 UNK         0.5089 
     39 O         -75.2308   26.4604  -79.1395 O.2       7 UNK        -0.5125 
     40 CA        -76.5957   24.7637  -78.1073 C.3       6 UNK         0.0408 
     41 CB        -75.8071   23.7048  -78.9049 C.3       6 UNK        -0.1791 
     42 N         -76.8208   24.3067  -76.7278 N.am      6 UNK        -0.4762 
     43 C         -75.8976   24.1564  -75.7632 C.2       6 UNK         0.5007 
     44 O         -74.7022   24.3978  -75.9230 O.2       6 UNK        -0.5032 
     45 CA        -76.3882   23.7257  -74.3716 C.3       5 UNK         0.0783 
     46 C46       -76.7372   24.9764  -73.5345 C.3       11 UNK        -0.0857 
     47 S47       -77.0254   24.5743  -71.7794 S.3       11 UNK        -0.2512 
     48 C48       -75.9910   25.8214  -70.9436 C.3       11 UNK         0.0225 
     49 N         -77.5198   22.8019  -74.4850 N.am      5 UNK        -0.4615 
     50 C         -77.4123   21.4684  -74.4209 C.2       4 UNK         0.5053 
     51 O         -76.3581   20.8727  -74.1969 O.2       4 UNK        -0.5105 
     52 CA        -78.6962   20.6531  -74.6599 C.3       4 UNK         0.0263 
     53 CB        -79.4870   20.5000  -73.3505 C.3       4 UNK        -0.1981 
     54 N         -79.5618   21.2425  -75.6829 N.am      4 UNK        -0.4224 
     55 C         -79.2434   21.3685  -76.9797 C.2       3 UNK         0.4895 
     56 O         -78.2242   20.8957  -77.4830 O.2       3 UNK        -0.5091 
     57 CA        -80.2118   22.1715  -77.8702 C.3       3 UNK         0.0250 
     58 CB        -81.0460   21.2225  -78.7461 C.3       3 UNK        -0.1996 
     59 N         -81.1165   23.0743  -77.1446 N.am      3 UNK        -0.4254 
     60 C         -80.7343   24.1089  -76.3825 C.2       2 UNK         0.5004 
     61 O         -79.5510   24.3925  -76.1775 O.2       2 UNK        -0.5226 
     62 CA        -81.8669   24.9482  -75.7589 C.3       2 UNK         0.0269 
     63 CB        -82.8290   24.0868  -74.9108 C.3       2 UNK        -0.1926 
     64 N         -81.3698   26.0949  -74.9873 N.am      2 UNK        -0.4687 
     65 C         -80.6620   26.0941  -73.8490 C.2       1 UNK         0.5165 
     66 O         -80.3943   25.0767  -73.2089 O.2       1 UNK        -0.5079 
     67 H67       -80.0097   30.9599  -76.1833 H         1 UNK         0.0900 
     68 H68       -78.5314   30.0259  -75.9578 H         1 UNK         0.0900 
     69 H69       -79.6422   29.6178  -77.2700 H         1 UNK         0.0900 
     70 H70       -78.6637   28.5437  -74.3335 H         1 UNK         0.2959 
     71 H71       -79.2535   27.2033  -72.7683 H         1 UNK         0.1079 
     72 H72       -81.2965   27.4482  -71.4747 H         1 UNK         0.0837 
     73 H73       -82.1380   28.1810  -72.8116 H         1 UNK         0.0837 
     74 H74       -79.9122   28.7062  -69.7328 H         1 UNK         0.0685 
     75 H75       -79.3339   30.3498  -69.8612 H         1 UNK         0.0685 
     76 H76       -78.2387   27.0412  -70.0255 H         1 UNK         0.1434 
     77 H77       -74.8199   27.7242  -72.5263 H         1 UNK         0.1329 
     78 H78       -77.7960   30.7772  -72.0888 H         1 UNK         0.1335 
     79 H79       -76.1247   30.7961  -73.9912 H         1 UNK         0.0680 
     80 H80       -74.8086   29.6442  -74.0035 H         1 UNK         0.0680 
     81 H81       -73.9609   33.2961  -73.8606 H         1 UNK         0.1032 
     82 H82       -73.7975   31.8074  -74.7375 H         1 UNK         0.1032 
     83 H83       -71.6307   32.8363  -74.5223 H         1 UNK         0.0461 
     84 H84       -70.6529   33.3349  -70.6449 H         1 UNK         0.3453 
     85 H85       -70.7515   31.7445  -71.3619 H         1 UNK         0.3453 
     86 H86       -72.0502   30.2052  -73.5018 H         1 UNK         0.2984 
     87 H87       -68.6526   29.2105  -74.1364 H         1 UNK         0.0554 
     88 H88       -69.1255   29.2343  -71.7190 H         1 UNK         0.0847 
     89 H89       -69.3952   27.6287  -72.3756 H         1 UNK         0.0847 
     90 H90       -70.7641   28.6661  -71.9848 H         1 UNK         0.0847 
     91 H91       -69.8526   28.1154  -75.5895 H         1 UNK         0.3141 
     92 H92       -71.5946   27.4916  -76.8789 H         1 UNK         0.0743 
     93 H93       -70.7195   25.5577  -75.5532 H         1 UNK         0.0784 
     94 H94       -72.0564   25.0568  -76.5743 H         1 UNK         0.0784 
     95 H95       -72.3087   25.3037  -74.8465 H         1 UNK         0.0784 
     96 H96       -74.1268   26.4452  -76.1081 H         1 UNK         0.3213 
     97 H97       -76.1260   28.6702  -75.9828 H         1 UNK         0.0855 
     98 H98       -75.7146   29.1346  -78.9802 H         1 UNK         0.0814 
     99 H99       -75.9455   30.3607  -77.7443 H         1 UNK         0.0814 
    100 H100      -77.2643   29.2773  -78.1555 H         1 UNK         0.0814 
    101 H101      -76.8643   26.6429  -76.4646 H         1 UNK         0.3105 
    102 H102      -77.5842   24.8503  -78.5606 H         1 UNK         0.0547 
    103 H103      -76.2803   22.7251  -78.8366 H         1 UNK         0.0837 
    104 H104      -74.7821   23.6084  -78.5453 H         1 UNK         0.0837 
    105 H105      -75.7573   23.9665  -79.9624 H         1 UNK         0.0837 
    106 H106      -77.8009   24.1706  -76.4807 H         1 UNK         0.3020 
    107 H107      -75.5467   23.2240  -73.8875 H         1 UNK         0.1245 
    108 H108      -77.6253   25.4742  -73.9270 H         1 UNK         0.0781 
    109 H109      -75.9265   25.7042  -73.5975 H         1 UNK         0.0781 
    110 H110      -74.9505   25.6933  -71.2466 H         1 UNK         0.0836 
    111 H111      -76.0204   25.6450  -69.8674 H         1 UNK         0.0836 
    112 H112      -78.4210   23.2170  -74.6862 H         1 UNK         0.3022 
    113 H113      -78.4005   19.6590  -75.0021 H         1 UNK         0.0747 
    114 H114      -80.3611   19.8627  -73.4859 H         1 UNK         0.0793 
    115 H115      -78.8709   20.0424  -72.5752 H         1 UNK         0.0793 
    116 H116      -79.8278   21.4637  -72.9686 H         1 UNK         0.0793 
    117 H117      -80.4284   21.6512  -75.3664 H         1 UNK         0.3047 
    118 H118      -79.5951   22.7886  -78.5273 H         1 UNK         0.0822 
    119 H119      -81.6597   21.7743  -79.4584 H         1 UNK         0.0807 
    120 H120      -81.7066   20.5952  -78.1462 H         1 UNK         0.0807 
    121 H121      -80.4031   20.5575  -79.3250 H         1 UNK         0.0807 
    122 H122      -82.1047   22.9055  -77.2684 H         1 UNK         0.2946 
    123 H123      -82.4329   25.3724  -76.5900 H         1 UNK         0.1144 
    124 H124      -83.5809   24.7038  -74.4187 H         1 UNK         0.0793 
    125 H125      -82.3031   23.5247  -74.1383 H         1 UNK         0.0793 
    126 H126      -83.3665   23.3646  -75.5258 H         1 UNK         0.0793 
    127 H127      -81.5296   27.0101  -75.4026 H         1 UNK         0.2896 
@<TRIPOS>BOND
     1    1    2 1    
     2    1   67 1    
     3    1   68 1    
     4    1   69 1    
     5    2    3 2    
     6    2    4 am   BACKBONE|DICT|INTERRES
     7    4    5 1    
     8    4   70 1    
     9    5    6 1    
    10    5   65 1    
    11    5   71 1    
    12    6    7 1    
    13    6   72 1    
    14    6   73 1    
    15    7    8 1    
    16    8    9 1    
    17    8   74 1    
    18    8   75 1    
    19    9   10 ar   
    20    9   14 ar   
    21   10   11 ar   
    22   10   76 1    
    23   11   12 ar   
    24   11   48 1    
    25   12   13 ar   
    26   12   77 1    
    27   13   14 ar   
    28   13   15 1    
    29   14   78 1    
    30   15   16 1    
    31   15   79 1    
    32   15   80 1    
    33   16   17 1    
    34   17   18 1    
    35   17   81 1    
    36   17   82 1    
    37   18   19 1    
    38   18   22 1    
    39   18   83 1    
    40   19   20 am   BACKBONE|DICT|INTERRES
    41   19   21 2    
    42   20   84 1    
    43   20   85 1    
    44   22   23 am   BACKBONE|DICT|INTERRES
    45   22   86 1    
    46   23   24 2    
    47   23   25 1    
    48   25   26 1    
    49   25   27 1    
    50   25   87 1    
    51   26   88 1    
    52   26   89 1    
    53   26   90 1    
    54   27   28 am   BACKBONE|DICT|INTERRES
    55   27   91 1    
    56   28   29 2    
    57   28   30 1    
    58   30   31 1    
    59   30   32 1    
    60   30   92 1    
    61   31   93 1    
    62   31   94 1    
    63   31   95 1    
    64   32   33 am   BACKBONE|DICT|INTERRES
    65   32   96 1    
    66   33   34 2    
    67   33   35 1    
    68   35   36 1    
    69   35   37 1    
    70   35   97 1    
    71   36   98 1    
    72   36   99 1    
    73   36  100 1    
    74   37   38 am   BACKBONE|DICT|INTERRES
    75   37  101 1    
    76   38   39 2    
    77   38   40 1    
    78   40   41 1    
    79   40   42 1    
    80   40  102 1    
    81   41  103 1    
    82   41  104 1    
    83   41  105 1    
    84   42   43 am   BACKBONE|DICT|INTERRES
    85   42  106 1    
    86   43   44 2    
    87   43   45 1    
    88   45   46 1    
    89   45   49 1    
    90   45  107 1    
    91   46   47 1    
    92   46  108 1    
    93   46  109 1    
    94   47   48 1    
    95   48  110 1    
    96   48  111 1    
    97   49   50 am   BACKBONE|DICT|INTERRES
    98   49  112 1    
    99   50   51 2    
   100   50   52 1    
   101   52   53 1    
   102   52   54 1    
   103   52  113 1    
   104   53  114 1    
   105   53  115 1    
   106   53  116 1    
   107   54   55 am   BACKBONE|DICT|INTERRES
   108   54  117 1    
   109   55   56 2    
   110   55   57 1    
   111   57   58 1    
   112   57   59 1    
   113   57  118 1    
   114   58  119 1    
   115   58  120 1    
   116   58  121 1    
   117   59   60 am   BACKBONE|DICT|INTERRES
   118   59  122 1    
   119   60   61 2    
   120   60   62 1    
   121   62   63 1    
   122   62   64 1    
   123   62  123 1    
   124   63  124 1    
   125   63  125 1    
   126   63  126 1    
   127   64   65 am   BACKBONE|DICT|INTERRES
   128   64  127 1    
   129   65   66 2    
@<TRIPOS>SUBSTRUCTURE
     1 UNK         1 GROUP             0       ****    0 ROOT    
