@<TRIPOS>MOLECULE
3R135
127   129    1
SMALL
USER_CHARGES


@<TRIPOS>ATOM
      1 CA        -82.6338   29.2907  -73.6988 C.3       0 UNK        -0.1998 
      2 C         -81.4163   28.5530  -74.2327 C.2       0 UNK         0.4909 
      3 O         -81.1606   27.4207  -73.8251 O.2       0 UNK        -0.5240 
      4 N         -80.6701   29.1787  -75.1553 N.am      1 UNK        -0.4739 
      5 CA        -79.4187   28.6758  -75.7559 C.3       1 UNK         0.0864 
      6 C6        -78.2678   28.5241  -74.7226 C.3       11 UNK        -0.0881 
      7 S7        -77.9271   30.0748  -73.8186 S.3       11 UNK        -0.2682 
      8 C8        -78.3913   29.6182  -72.1172 C.3       11 UNK         0.0289 
      9 C9        -77.3705   28.6741  -71.5008 C.ar      11 UNK        -0.0687 
     10 C10       -77.6283   27.3029  -71.4114 C.ar      11 UNK        -0.0823 
     11 C11       -76.6746   26.4332  -70.8725 C.ar      11 UNK        -0.0830 
     12 C12       -75.4525   26.9523  -70.4253 C.ar      11 UNK        -0.1021 
     13 C13       -75.1833   28.3226  -70.5098 C.ar      11 UNK        -0.0753 
     14 C14       -76.1582   29.1788  -71.0267 C.ar      11 UNK        -0.0933 
     15 C15       -73.8471   28.8766  -70.0316 C.3       11 UNK         0.0166 
     16 S16       -72.7681   29.3767  -71.4171 S.3       11 UNK        -0.2615 
     17 C17       -73.2970   31.1004  -71.7276 C.3       11 UNK        -0.0865 
     18 CA        -74.0356   31.2827  -73.0879 C.3       10 UNK         0.0862 
     19 C         -74.7820   32.6478  -73.1961 C.2       10 UNK         0.5551 
     20 N         -74.9048   33.2424  -74.3770 N.am      10 UNK        -0.7319 
     21 O         -75.2851   33.1661  -72.2020 O.2       10 UNK        -0.5018 
     22 N         -73.2018   30.9435  -74.2538 N.am      10 UNK        -0.4509 
     23 C         -72.0781   31.5603  -74.6526 C.2       10 UNK         0.4899 
     24 O         -71.5858   32.5281  -74.0705 O.2       10 UNK        -0.4839 
     25 CA        -71.4042   31.0226  -75.9366 C.3       9 UNK         0.0222 
     26 CB        -69.8923   31.3298  -75.9998 C.3       9 UNK        -0.1966 
     27 N         -71.6764   29.5987  -76.1722 N.am      9 UNK        -0.4218 
     28 C         -71.3361   28.5670  -75.3846 C.2       9 UNK         0.5020 
     29 O         -70.5311   28.6559  -74.4562 O.2       9 UNK        -0.5274 
     30 CA        -72.0165   27.2069  -75.6613 C.3       8 UNK         0.0270 
     31 CB        -72.3977   26.4993  -74.3446 C.3       8 UNK        -0.1976 
     32 N         -73.1818   27.2357  -76.5649 N.am      8 UNK        -0.4313 
     33 C         -74.3109   27.9514  -76.4496 C.2       8 UNK         0.5041 
     34 O         -74.5068   28.7887  -75.5706 O.2       8 UNK        -0.5577 
     35 CA        -75.4005   27.7178  -77.5085 C.3       7 UNK         0.0284 
     36 CB        -74.9658   28.2124  -78.9032 C.3       7 UNK        -0.1958 
     37 N         -75.8956   26.3360  -77.5319 N.am      7 UNK        -0.4454 
     38 C         -75.2466   25.2278  -77.9127 C.2       7 UNK         0.5089 
     39 O         -74.1003   25.2234  -78.3689 O.2       7 UNK        -0.5125 
     40 CA        -76.0067   23.9065  -77.7005 C.3       6 UNK         0.0408 
     41 CB        -75.3987   22.7321  -78.4953 C.3       6 UNK        -0.1791 
     42 N         -76.1250   23.5642  -76.2776 N.am      6 UNK        -0.4762 
     43 C         -75.1289   23.3661  -75.3949 C.2       6 UNK         0.5007 
     44 O         -73.9340   23.4358  -75.6808 O.2       6 UNK        -0.5032 
     45 CA        -75.5167   23.0075  -73.9419 C.3       5 UNK         0.0783 
     46 C46       -75.4713   24.2681  -73.0454 C.3       11 UNK        -0.0857 
     47 S47       -75.6290   23.8545  -71.2770 S.3       11 UNK        -0.2512 
     48 C48       -76.9940   24.9443  -70.7518 C.3       11 UNK         0.0225 
     49 N         -76.8083   22.3193  -73.8522 N.am      5 UNK        -0.4615 
     50 C         -77.0723   21.1057  -74.3530 C.2       4 UNK         0.5053 
     51 O         -76.2104   20.3653  -74.8277 O.2       4 UNK        -0.5105 
     52 CA        -78.5421   20.6341  -74.3493 C.3       4 UNK         0.0263 
     53 CB        -78.7509   19.5604  -73.2683 C.3       4 UNK        -0.1981 
     54 N         -79.5656   21.6789  -74.1824 N.am      4 UNK        -0.4224 
     55 C         -79.7073   22.7897  -74.9213 C.2       3 UNK         0.4895 
     56 O         -78.9106   23.1300  -75.7985 O.2       3 UNK        -0.5091 
     57 CA        -80.9174   23.6818  -74.5754 C.3       3 UNK         0.0250 
     58 CB        -80.7650   24.2739  -73.1622 C.3       3 UNK        -0.1996 
     59 N         -81.1026   24.7856  -75.5230 N.am      3 UNK        -0.4254 
     60 C         -81.3728   24.6565  -76.8318 C.2       2 UNK         0.5004 
     61 O         -81.6658   23.5824  -77.3607 O.2       2 UNK        -0.5226 
     62 CA        -81.3185   25.9243  -77.7112 C.3       2 UNK         0.0269 
     63 CB        -82.6914   26.2094  -78.3448 C.3       2 UNK        -0.1926 
     64 N         -80.8705   27.1290  -77.0066 N.am      2 UNK        -0.4687 
     65 C         -79.6202   27.3886  -76.5951 C.2       1 UNK         0.5165 
     66 O         -78.6610   26.6551  -76.8429 O.2       1 UNK        -0.5079 
     67 H67       -83.5376   28.7157  -73.8979 H         1 UNK         0.0900 
     68 H68       -82.5452   29.4246  -72.6211 H         1 UNK         0.0900 
     69 H69       -82.7480   30.2739  -74.1547 H         1 UNK         0.0900 
     70 H70       -80.9397   30.1066  -75.4524 H         1 UNK         0.2959 
     71 H71       -79.1073   29.4338  -76.4764 H         1 UNK         0.1079 
     72 H72       -77.3381   28.2304  -75.2088 H         1 UNK         0.0837 
     73 H73       -78.4948   27.7204  -74.0231 H         1 UNK         0.0837 
     74 H74       -79.3874   29.1739  -72.1110 H         1 UNK         0.0685 
     75 H75       -78.4573   30.5254  -71.5150 H         1 UNK         0.0685 
     76 H76       -78.5752   26.9148  -71.7620 H         1 UNK         0.1434 
     77 H77       -74.7088   26.2865  -70.0095 H         1 UNK         0.1329 
     78 H78       -75.9693   30.2408  -71.0832 H         1 UNK         0.1335 
     79 H79       -74.0102   29.7138  -69.3518 H         1 UNK         0.0680 
     80 H80       -73.3183   28.1207  -69.4490 H         1 UNK         0.0680 
     81 H81       -72.4170   31.7430  -71.6841 H         1 UNK         0.1032 
     82 H82       -73.9258   31.4256  -70.8982 H         1 UNK         0.1032 
     83 H83       -74.8380   30.5464  -73.1182 H         1 UNK         0.0461 
     84 H84       -74.5139   32.8171  -75.2018 H         1 UNK         0.3453 
     85 H85       -75.3983   34.1185  -74.4419 H         1 UNK         0.3453 
     86 H86       -73.5519   30.1552  -74.7967 H         1 UNK         0.2984 
     87 H87       -71.8771   31.5542  -76.7633 H         1 UNK         0.0554 
     88 H88       -69.7124   32.4055  -75.9964 H         1 UNK         0.0847 
     89 H89       -69.4426   30.9308  -76.9088 H         1 UNK         0.0847 
     90 H90       -69.3560   30.9119  -75.1476 H         1 UNK         0.0847 
     91 H91       -72.3400   29.4012  -76.9075 H         1 UNK         0.3141 
     92 H92       -71.2636   26.5952  -76.1601 H         1 UNK         0.0743 
     93 H93       -71.5378   26.3921  -73.6824 H         1 UNK         0.0784 
     94 H94       -72.7724   25.4965  -74.5382 H         1 UNK         0.0784 
     95 H95       -73.1635   27.0500  -73.7962 H         1 UNK         0.0784 
     96 H96       -73.1716   26.5496  -77.3174 H         1 UNK         0.3213 
     97 H97       -76.2557   28.3288  -77.2186 H         1 UNK         0.0855 
     98 H98       -74.0957   27.6785  -79.2853 H         1 UNK         0.0814 
     99 H99       -74.7058   29.2713  -78.8736 H         1 UNK         0.0814 
    100 H100      -75.7709   28.0989  -79.6291 H         1 UNK         0.0814 
    101 H101      -76.8450   26.2283  -77.1779 H         1 UNK         0.3105 
    102 H102      -77.0234   24.0593  -78.0667 H         1 UNK         0.0547 
    103 H103      -75.9864   21.8231  -78.3683 H         1 UNK         0.0837 
    104 H104      -74.3757   22.5146  -78.1870 H         1 UNK         0.0837 
    105 H105      -75.3737   22.9577  -79.5620 H         1 UNK         0.0837 
    106 H106      -77.0841   23.4589  -75.9492 H         1 UNK         0.3020 
    107 H107      -74.7533   22.3113  -73.5865 H         1 UNK         0.1245 
    108 H108      -76.2477   24.9774  -73.3392 H         1 UNK         0.0781 
    109 H109      -74.5232   24.7941  -73.1612 H         1 UNK         0.0781 
    110 H110      -77.2317   24.7259  -69.7100 H         1 UNK         0.0836 
    111 H111      -77.8841   24.6890  -71.3288 H         1 UNK         0.0836 
    112 H112      -77.5735   22.8516  -73.4686 H         1 UNK         0.3022 
    113 H113      -78.7201   20.1741  -75.3234 H         1 UNK         0.0747 
    114 H114      -79.7457   19.1188  -73.3312 H         1 UNK         0.0793 
    115 H115      -78.0327   18.7464  -73.3790 H         1 UNK         0.0793 
    116 H116      -78.6259   19.9701  -72.2651 H         1 UNK         0.0793 
    117 H117      -80.2587   21.4969  -73.4706 H         1 UNK         0.3047 
    118 H118      -81.8134   23.0587  -74.6068 H         1 UNK         0.0822 
    119 H119      -81.6369   24.8690  -72.8895 H         1 UNK         0.0807 
    120 H120      -79.8889   24.9200  -73.0908 H         1 UNK         0.0807 
    121 H121      -80.6635   23.4972  -72.4037 H         1 UNK         0.0807 
    122 H122      -80.9129   25.7139  -75.1644 H         1 UNK         0.2946 
    123 H123      -80.6053   25.7167  -78.5122 H         1 UNK         0.1144 
    124 H124      -82.6468   27.0610  -79.0240 H         1 UNK         0.0793 
    125 H125      -83.4482   26.4204  -77.5882 H         1 UNK         0.0793 
    126 H126      -83.0413   25.3548  -78.9257 H         1 UNK         0.0793 
    127 H127      -81.5892   27.7875  -76.7423 H         1 UNK         0.2896 
@<TRIPOS>BOND
     1    1    2 1    
     2    1   67 1    
     3    1   68 1    
     4    1   69 1    
     5    2    3 2    
     6    2    4 am   BACKBONE|DICT|INTERRES
     7    4    5 1    
     8    4   70 1    
     9    5    6 1    
    10    5   65 1    
    11    5   71 1    
    12    6    7 1    
    13    6   72 1    
    14    6   73 1    
    15    7    8 1    
    16    8    9 1    
    17    8   74 1    
    18    8   75 1    
    19    9   10 ar   
    20    9   14 ar   
    21   10   11 ar   
    22   10   76 1    
    23   11   12 ar   
    24   11   48 1    
    25   12   13 ar   
    26   12   77 1    
    27   13   14 ar   
    28   13   15 1    
    29   14   78 1    
    30   15   16 1    
    31   15   79 1    
    32   15   80 1    
    33   16   17 1    
    34   17   18 1    
    35   17   81 1    
    36   17   82 1    
    37   18   19 1    
    38   18   22 1    
    39   18   83 1    
    40   19   20 am   BACKBONE|DICT|INTERRES
    41   19   21 2    
    42   20   84 1    
    43   20   85 1    
    44   22   23 am   BACKBONE|DICT|INTERRES
    45   22   86 1    
    46   23   24 2    
    47   23   25 1    
    48   25   26 1    
    49   25   27 1    
    50   25   87 1    
    51   26   88 1    
    52   26   89 1    
    53   26   90 1    
    54   27   28 am   BACKBONE|DICT|INTERRES
    55   27   91 1    
    56   28   29 2    
    57   28   30 1    
    58   30   31 1    
    59   30   32 1    
    60   30   92 1    
    61   31   93 1    
    62   31   94 1    
    63   31   95 1    
    64   32   33 am   BACKBONE|DICT|INTERRES
    65   32   96 1    
    66   33   34 2    
    67   33   35 1    
    68   35   36 1    
    69   35   37 1    
    70   35   97 1    
    71   36   98 1    
    72   36   99 1    
    73   36  100 1    
    74   37   38 am   BACKBONE|DICT|INTERRES
    75   37  101 1    
    76   38   39 2    
    77   38   40 1    
    78   40   41 1    
    79   40   42 1    
    80   40  102 1    
    81   41  103 1    
    82   41  104 1    
    83   41  105 1    
    84   42   43 am   BACKBONE|DICT|INTERRES
    85   42  106 1    
    86   43   44 2    
    87   43   45 1    
    88   45   46 1    
    89   45   49 1    
    90   45  107 1    
    91   46   47 1    
    92   46  108 1    
    93   46  109 1    
    94   47   48 1    
    95   48  110 1    
    96   48  111 1    
    97   49   50 am   BACKBONE|DICT|INTERRES
    98   49  112 1    
    99   50   51 2    
   100   50   52 1    
   101   52   53 1    
   102   52   54 1    
   103   52  113 1    
   104   53  114 1    
   105   53  115 1    
   106   53  116 1    
   107   54   55 am   BACKBONE|DICT|INTERRES
   108   54  117 1    
   109   55   56 2    
   110   55   57 1    
   111   57   58 1    
   112   57   59 1    
   113   57  118 1    
   114   58  119 1    
   115   58  120 1    
   116   58  121 1    
   117   59   60 am   BACKBONE|DICT|INTERRES
   118   59  122 1    
   119   60   61 2    
   120   60   62 1    
   121   62   63 1    
   122   62   64 1    
   123   62  123 1    
   124   63  124 1    
   125   63  125 1    
   126   63  126 1    
   127   64   65 am   BACKBONE|DICT|INTERRES
   128   64  127 1    
   129   65   66 2    
@<TRIPOS>SUBSTRUCTURE
     1 UNK         1 GROUP             0       ****    0 ROOT    
