@<TRIPOS>MOLECULE
3R135
127   129    1
SMALL
USER_CHARGES


@<TRIPOS>ATOM
      1 CA        -75.9662   25.2023  -70.7846 C.3       0 UNK        -0.1998 
      2 C         -77.4466   24.8543  -70.7824 C.2       0 UNK         0.4909 
      3 O         -77.8204   23.7635  -70.3486 O.2       0 UNK        -0.5240 
      4 N         -78.2899   25.7795  -71.2560 N.am      1 UNK        -0.4739 
      5 CA        -79.7382   25.6016  -71.4168 C.3       1 UNK         0.0864 
      6 C6        -80.4480   26.9601  -71.6378 C.3       11 UNK        -0.0881 
      7 S7        -80.2788   28.0641  -70.1923 S.3       11 UNK        -0.2682 
      8 C8        -80.7763   29.6754  -70.8817 C.3       11 UNK         0.0289 
      9 C9        -79.6789   30.2806  -71.7440 C.ar      11 UNK        -0.0687 
     10 C10       -79.6733   30.0662  -73.1234 C.ar      11 UNK        -0.0823 
     11 C11       -78.6340   30.5594  -73.9155 C.ar      11 UNK        -0.0830 
     12 C12       -77.6358   31.3443  -73.3292 C.ar      11 UNK        -0.1021 
     13 C13       -77.6394   31.5852  -71.9512 C.ar      11 UNK        -0.0753 
     14 C14       -78.6598   31.0415  -71.1630 C.ar      11 UNK        -0.0933 
     15 C15       -76.5520   32.4371  -71.3084 C.3       11 UNK         0.0166 
     16 S16       -74.9595   31.5558  -71.1776 S.3       11 UNK        -0.2615 
     17 C17       -74.1500   31.9808  -72.7603 C.3       11 UNK        -0.0865 
     18 CA        -73.9822   30.7715  -73.7236 C.3       10 UNK         0.0862 
     19 C         -73.6324   31.2444  -75.1655 C.2       10 UNK         0.5551 
     20 N         -72.6071   30.7107  -75.8184 N.am      10 UNK        -0.7319 
     21 O         -74.3116   32.1126  -75.7081 O.2       10 UNK        -0.5018 
     22 N         -73.0325   29.7762  -73.1954 N.am      10 UNK        -0.4509 
     23 C         -73.3560   28.5974  -72.6509 C.2       10 UNK         0.4899 
     24 O         -74.5084   28.1906  -72.4983 O.2       10 UNK        -0.4839 
     25 CA        -72.1615   27.7284  -72.2155 C.3       9 UNK         0.0222 
     26 CB        -72.5399   26.6678  -71.1590 C.3       9 UNK        -0.1966 
     27 N         -71.4828   27.1202  -73.3686 N.am      9 UNK        -0.4218 
     28 C         -71.9883   26.2274  -74.2337 C.2       9 UNK         0.5020 
     29 O         -73.1056   25.7152  -74.1463 O.2       9 UNK        -0.5274 
     30 CA        -71.0657   25.7952  -75.3772 C.3       8 UNK         0.0270 
     31 CB        -70.1465   24.6428  -74.9255 C.3       8 UNK        -0.1976 
     32 N         -71.8979   25.3779  -76.5027 N.am      8 UNK        -0.4313 
     33 C         -71.4852   25.2075  -77.7638 C.2       8 UNK         0.5041 
     34 O         -70.3205   25.3644  -78.1337 O.2       8 UNK        -0.5577 
     35 CA        -72.5535   24.8107  -78.7930 C.3       7 UNK         0.0284 
     36 CB        -72.9084   23.3190  -78.6716 C.3       7 UNK        -0.1958 
     37 N         -73.7599   25.6283  -78.6506 N.am      7 UNK        -0.4454 
     38 C         -73.9015   26.8500  -79.1877 C.2       7 UNK         0.5089 
     39 O         -73.0522   27.3810  -79.9046 O.2       7 UNK        -0.5125 
     40 CA        -75.2066   27.6171  -78.8982 C.3       6 UNK         0.0408 
     41 CB        -76.1995   27.4445  -80.0584 C.3       6 UNK        -0.1791 
     42 N         -75.8608   27.2224  -77.6513 N.am      6 UNK        -0.4762 
     43 C         -75.3719   27.4407  -76.4218 C.2       6 UNK         0.5007 
     44 O         -74.3275   28.0526  -76.2056 O.2       6 UNK        -0.5032 
     45 CA        -76.1691   26.8493  -75.2392 C.3       5 UNK         0.0783 
     46 C46       -77.1023   27.9024  -74.5990 C.3       11 UNK        -0.0857 
     47 S47       -78.5323   28.3827  -75.6373 S.3       11 UNK        -0.2512 
     48 C48       -78.5641   30.1933  -75.3928 C.3       11 UNK         0.0225 
     49 N         -76.9056   25.6216  -75.5535 N.am      5 UNK        -0.4615 
     50 C         -76.4312   24.5057  -76.1235 C.2       4 UNK         0.5053 
     51 O         -75.2652   24.3638  -76.4912 O.2       4 UNK        -0.5105 
     52 CA        -77.4374   23.3659  -76.3520 C.3       4 UNK         0.0263 
     53 CB        -77.1758   22.2158  -75.3662 C.3       4 UNK        -0.1981 
     54 N         -78.8221   23.8190  -76.1972 N.am      4 UNK        -0.4224 
     55 C         -79.5616   24.4037  -77.1515 C.2       3 UNK         0.4895 
     56 O         -79.1593   24.5728  -78.3035 O.2       3 UNK        -0.5091 
     57 CA        -80.9618   24.9313  -76.7567 C.3       3 UNK         0.0250 
     58 CB        -82.0261   24.6195  -77.8301 C.3       3 UNK        -0.1996 
     59 N         -81.4133   24.5163  -75.4183 N.am      3 UNK        -0.4254 
     60 C         -81.6575   23.2691  -74.9851 C.2       2 UNK         0.5004 
     61 O         -81.6791   22.2841  -75.7245 O.2       2 UNK        -0.5226 
     62 CA        -81.8654   23.0780  -73.4645 C.3       2 UNK         0.0269 
     63 CB        -81.3294   21.7104  -72.9883 C.3       2 UNK        -0.1926 
     64 N         -81.3212   24.1406  -72.5963 N.am      2 UNK        -0.4687 
     65 C         -80.0632   24.6119  -72.5592 C.2       1 UNK         0.5165 
     66 O         -79.2023   24.3215  -73.3945 O.2       1 UNK        -0.5079 
     67 H67       -75.7922   26.2293  -71.1152 H         1 UNK         0.0900 
     68 H68       -75.4252   24.5327  -71.4580 H         1 UNK         0.0900 
     69 H69       -75.5500   25.0926  -69.7806 H         1 UNK         0.0900 
     70 H70       -77.9242   26.6628  -71.5791 H         1 UNK         0.2959 
     71 H71       -80.1204   25.1570  -70.4949 H         1 UNK         0.1079 
     72 H72       -80.0413   27.4450  -72.5250 H         1 UNK         0.0837 
     73 H73       -81.5157   26.8260  -71.8215 H         1 UNK         0.0837 
     74 H74       -81.0095   30.3525  -70.0586 H         1 UNK         0.0685 
     75 H75       -81.6990   29.5620  -71.4530 H         1 UNK         0.0685 
     76 H76       -80.4536   29.4725  -73.5794 H         1 UNK         0.1434 
     77 H77       -76.8423   31.7489  -73.9412 H         1 UNK         0.1329 
     78 H78       -78.6624   31.2079  -70.0944 H         1 UNK         0.1335 
     79 H79       -76.8564   32.7298  -70.3024 H         1 UNK         0.0680 
     80 H80       -76.4331   33.3700  -71.8608 H         1 UNK         0.0680 
     81 H81       -74.7179   32.7815  -73.2364 H         1 UNK         0.1032 
     82 H82       -73.1746   32.4160  -72.5367 H         1 UNK         0.1032 
     83 H83       -74.9564   30.2981  -73.8313 H         1 UNK         0.0461 
     84 H84       -72.1081   29.9249  -75.4372 H         1 UNK         0.3453 
     85 H85       -72.4066   31.0271  -76.7535 H         1 UNK         0.3453 
     86 H86       -72.0574   30.0261  -73.2723 H         1 UNK         0.2984 
     87 H87       -71.4372   28.3968  -71.7469 H         1 UNK         0.0554 
     88 H88       -71.6609   26.1287  -70.8065 H         1 UNK         0.0847 
     89 H89       -73.2460   25.9348  -71.5477 H         1 UNK         0.0847 
     90 H90       -73.0060   27.1346  -70.2905 H         1 UNK         0.0847 
     91 H91       -70.5433   27.4532  -73.5374 H         1 UNK         0.3141 
     92 H92       -70.4625   26.6513  -75.6868 H         1 UNK         0.0743 
     93 H93       -70.7219   23.7609  -74.6407 H         1 UNK         0.0784 
     94 H94       -69.4529   24.3488  -75.7132 H         1 UNK         0.0784 
     95 H95       -69.5461   24.9336  -74.0626 H         1 UNK         0.0784 
     96 H96       -72.8769   25.2496  -76.2655 H         1 UNK         0.3213 
     97 H97       -72.1341   24.9687  -79.7894 H         1 UNK         0.0855 
     98 H98       -73.2961   23.0680  -77.6840 H         1 UNK         0.0814 
     99 H99       -72.0279   22.6976  -78.8400 H         1 UNK         0.0814 
    100 H100      -73.6564   23.0279  -79.4091 H         1 UNK         0.0814 
    101 H101      -74.4786   25.2748  -78.0250 H         1 UNK         0.3105 
    102 H102      -74.9533   28.6766  -78.8207 H         1 UNK         0.0547 
    103 H103      -75.7527   27.7547  -81.0041 H         1 UNK         0.0837 
    104 H104      -76.5126   26.4056  -80.1711 H         1 UNK         0.0837 
    105 H105      -77.0932   28.0509  -79.9104 H         1 UNK         0.0837 
    106 H106      -76.7313   26.7158  -77.7300 H         1 UNK         0.3020 
    107 H107      -75.4311   26.5732  -74.4855 H         1 UNK         0.1245 
    108 H108      -76.5270   28.7879  -74.3325 H         1 UNK         0.0781 
    109 H109      -77.4911   27.5210  -73.6542 H         1 UNK         0.0781 
    110 H110      -79.4288   30.6106  -75.9102 H         1 UNK         0.0836 
    111 H111      -77.6799   30.6282  -75.8620 H         1 UNK         0.0836 
    112 H112      -77.8772   25.6223  -75.2802 H         1 UNK         0.3022 
    113 H113      -77.2913   22.9909  -77.3672 H         1 UNK         0.0747 
    114 H114      -77.8621   21.3857  -75.5350 H         1 UNK         0.0793 
    115 H115      -76.1624   21.8281  -75.4791 H         1 UNK         0.0793 
    116 H116      -77.2884   22.5385  -74.3301 H         1 UNK         0.0793 
    117 H117      -79.1943   23.7793  -75.2517 H         1 UNK         0.3047 
    118 H118      -80.8588   26.0166  -76.7079 H         1 UNK         0.0822 
    119 H119      -83.0030   25.0111  -77.5467 H         1 UNK         0.0807 
    120 H120      -82.1300   23.5478  -78.0017 H         1 UNK         0.0807 
    121 H121      -81.7620   25.0738  -78.7859 H         1 UNK         0.0807 
    122 H122      -81.4216   25.2474  -74.7212 H         1 UNK         0.2946 
    123 H123      -82.9467   23.0802  -73.3152 H         1 UNK         0.1144 
    124 H124      -81.5113   21.5607  -71.9240 H         1 UNK         0.0793 
    125 H125      -80.2560   21.6181  -73.1606 H         1 UNK         0.0793 
    126 H126      -81.8163   20.8874  -73.5133 H         1 UNK         0.0793 
    127 H127      -81.9671   24.4804  -71.8961 H         1 UNK         0.2896 
@<TRIPOS>BOND
     1    1    2 1    
     2    1   67 1    
     3    1   68 1    
     4    1   69 1    
     5    2    3 2    
     6    2    4 am   BACKBONE|DICT|INTERRES
     7    4    5 1    
     8    4   70 1    
     9    5    6 1    
    10    5   65 1    
    11    5   71 1    
    12    6    7 1    
    13    6   72 1    
    14    6   73 1    
    15    7    8 1    
    16    8    9 1    
    17    8   74 1    
    18    8   75 1    
    19    9   10 ar   
    20    9   14 ar   
    21   10   11 ar   
    22   10   76 1    
    23   11   12 ar   
    24   11   48 1    
    25   12   13 ar   
    26   12   77 1    
    27   13   14 ar   
    28   13   15 1    
    29   14   78 1    
    30   15   16 1    
    31   15   79 1    
    32   15   80 1    
    33   16   17 1    
    34   17   18 1    
    35   17   81 1    
    36   17   82 1    
    37   18   19 1    
    38   18   22 1    
    39   18   83 1    
    40   19   20 am   BACKBONE|DICT|INTERRES
    41   19   21 2    
    42   20   84 1    
    43   20   85 1    
    44   22   23 am   BACKBONE|DICT|INTERRES
    45   22   86 1    
    46   23   24 2    
    47   23   25 1    
    48   25   26 1    
    49   25   27 1    
    50   25   87 1    
    51   26   88 1    
    52   26   89 1    
    53   26   90 1    
    54   27   28 am   BACKBONE|DICT|INTERRES
    55   27   91 1    
    56   28   29 2    
    57   28   30 1    
    58   30   31 1    
    59   30   32 1    
    60   30   92 1    
    61   31   93 1    
    62   31   94 1    
    63   31   95 1    
    64   32   33 am   BACKBONE|DICT|INTERRES
    65   32   96 1    
    66   33   34 2    
    67   33   35 1    
    68   35   36 1    
    69   35   37 1    
    70   35   97 1    
    71   36   98 1    
    72   36   99 1    
    73   36  100 1    
    74   37   38 am   BACKBONE|DICT|INTERRES
    75   37  101 1    
    76   38   39 2    
    77   38   40 1    
    78   40   41 1    
    79   40   42 1    
    80   40  102 1    
    81   41  103 1    
    82   41  104 1    
    83   41  105 1    
    84   42   43 am   BACKBONE|DICT|INTERRES
    85   42  106 1    
    86   43   44 2    
    87   43   45 1    
    88   45   46 1    
    89   45   49 1    
    90   45  107 1    
    91   46   47 1    
    92   46  108 1    
    93   46  109 1    
    94   47   48 1    
    95   48  110 1    
    96   48  111 1    
    97   49   50 am   BACKBONE|DICT|INTERRES
    98   49  112 1    
    99   50   51 2    
   100   50   52 1    
   101   52   53 1    
   102   52   54 1    
   103   52  113 1    
   104   53  114 1    
   105   53  115 1    
   106   53  116 1    
   107   54   55 am   BACKBONE|DICT|INTERRES
   108   54  117 1    
   109   55   56 2    
   110   55   57 1    
   111   57   58 1    
   112   57   59 1    
   113   57  118 1    
   114   58  119 1    
   115   58  120 1    
   116   58  121 1    
   117   59   60 am   BACKBONE|DICT|INTERRES
   118   59  122 1    
   119   60   61 2    
   120   60   62 1    
   121   62   63 1    
   122   62   64 1    
   123   62  123 1    
   124   63  124 1    
   125   63  125 1    
   126   63  126 1    
   127   64   65 am   BACKBONE|DICT|INTERRES
   128   64  127 1    
   129   65   66 2    
@<TRIPOS>SUBSTRUCTURE
     1 UNK         1 GROUP             0       ****    0 ROOT    
