@<TRIPOS>MOLECULE
3R135
127   129    1
SMALL
USER_CHARGES


@<TRIPOS>ATOM
      1 CA        -80.1081   23.8240  -69.6384 C.3       0 UNK        -0.1998 
      2 C         -81.0659   24.3957  -70.6729 C.2       0 UNK         0.4909 
      3 O         -82.0898   23.7781  -70.9692 O.2       0 UNK        -0.5240 
      4 N         -80.7430   25.5756  -71.2150 N.am      1 UNK        -0.4739 
      5 CA        -81.4974   26.2516  -72.2773 C.3       1 UNK         0.0864 
      6 C6        -81.1512   27.7626  -72.3607 C.3       11 UNK        -0.0881 
      7 S7        -81.3415   28.6215  -70.7555 S.3       11 UNK        -0.2682 
      8 C8        -80.4080   30.1741  -71.0070 C.3       11 UNK         0.0289 
      9 C9        -79.0020   29.9523  -71.5537 C.ar      11 UNK        -0.0687 
     10 C10       -78.1429   29.0249  -70.9545 C.ar      11 UNK        -0.0823 
     11 C11       -76.9027   28.7341  -71.5282 C.ar      11 UNK        -0.0830 
     12 C12       -76.5016   29.4210  -72.6767 C.ar      11 UNK        -0.1021 
     13 C13       -77.3220   30.3949  -73.2523 C.ar      11 UNK        -0.0753 
     14 C14       -78.5771   30.6481  -72.6908 C.ar      11 UNK        -0.0933 
     15 C15       -76.8747   31.1332  -74.5078 C.3       11 UNK         0.0166 
     16 S16       -75.2366   31.9157  -74.3046 S.3       11 UNK        -0.2615 
     17 C17       -74.4325   31.5717  -75.9140 C.3       11 UNK        -0.0865 
     18 CA        -72.9367   31.1593  -75.8104 C.3       10 UNK         0.0862 
     19 C         -72.0089   32.3819  -75.5568 C.2       10 UNK         0.5551 
     20 N         -71.7608   33.1890  -76.5797 N.am      10 UNK        -0.7319 
     21 O         -71.5340   32.6214  -74.4475 O.2       10 UNK        -0.5018 
     22 N         -72.7273   30.0700  -74.8448 N.am      10 UNK        -0.4509 
     23 C         -71.6351   29.2961  -74.7913 C.2       10 UNK         0.4899 
     24 O         -70.7346   29.3212  -75.6314 O.2       10 UNK        -0.4839 
     25 CA        -71.5029   28.3440  -73.5932 C.3       9 UNK         0.0222 
     26 CB        -72.3048   28.7892  -72.3542 C.3       9 UNK        -0.1966 
     27 N         -71.9304   27.0052  -73.9928 N.am      9 UNK        -0.4218 
     28 C         -71.1314   25.9360  -74.1007 C.2       9 UNK         0.5020 
     29 O         -69.9244   25.9458  -73.8522 O.2       9 UNK        -0.5274 
     30 CA        -71.7891   24.6205  -74.5546 C.3       8 UNK         0.0270 
     31 CB        -72.5436   23.9569  -73.3905 C.3       8 UNK        -0.1976 
     32 N         -72.6904   24.7940  -75.6963 N.am      8 UNK        -0.4313 
     33 C         -72.2902   25.1061  -76.9379 C.2       8 UNK         0.5041 
     34 O         -71.1105   25.2378  -77.2666 O.2       8 UNK        -0.5577 
     35 CA        -73.3878   25.3015  -77.9971 C.3       7 UNK         0.0284 
     36 CB        -73.7972   23.9532  -78.6114 C.3       7 UNK        -0.1958 
     37 N         -74.5678   25.9768  -77.4557 N.am      7 UNK        -0.4454 
     38 C         -74.6046   27.2710  -77.1117 C.2       7 UNK         0.5089 
     39 O         -73.6845   28.0594  -77.3216 O.2       7 UNK        -0.5125 
     40 CA        -75.8665   27.7712  -76.3879 C.3       6 UNK         0.0408 
     41 CB        -76.9278   28.2415  -77.3932 C.3       6 UNK        -0.1791 
     42 N         -76.4482   26.7814  -75.4789 N.am      6 UNK        -0.4762 
     43 C         -75.8430   26.3350  -74.3674 C.2       6 UNK         0.5007 
     44 O         -74.7386   26.7294  -73.9936 O.2       6 UNK        -0.5032 
     45 CA        -76.5611   25.2246  -73.5751 C.3       5 UNK         0.0783 
     46 C46       -77.5280   25.7986  -72.5137 C.3       11 UNK        -0.0857 
     47 S47       -76.7883   26.0127  -70.8589 S.3       11 UNK        -0.2512 
     48 C48       -76.0049   27.6598  -70.9294 C.3       11 UNK         0.0225 
     49 N         -77.2393   24.2843  -74.4723 N.am      5 UNK        -0.4615 
     50 C         -76.5888   23.4361  -75.2794 C.2       4 UNK         0.5053 
     51 O         -75.3611   23.3617  -75.3448 O.2       4 UNK        -0.5105 
     52 CA        -77.4534   22.5551  -76.1928 C.3       4 UNK         0.0263 
     53 CB        -78.1699   21.4628  -75.3819 C.3       4 UNK        -0.1981 
     54 N         -78.4367   23.3204  -76.9635 N.am      4 UNK        -0.4224 
     55 C         -78.1400   24.2704  -77.8633 C.2       3 UNK         0.4895 
     56 O         -76.9942   24.6337  -78.1198 O.2       3 UNK        -0.5091 
     57 CA        -79.3122   24.9328  -78.6072 C.3       3 UNK         0.0250 
     58 CB        -79.5526   24.2348  -79.9552 C.3       3 UNK        -0.1996 
     59 N         -80.5555   24.9386  -77.8340 N.am      3 UNK        -0.4254 
     60 C         -80.7637   25.6881  -76.7434 C.2       2 UNK         0.5004 
     61 O         -79.9439   26.5087  -76.3215 O.2       2 UNK        -0.5226 
     62 CA        -82.1164   25.4897  -76.0217 C.3       2 UNK         0.0269 
     63 CB        -82.6244   24.0297  -76.0785 C.3       2 UNK        -0.1926 
     64 N         -82.1108   25.9605  -74.6295 N.am      2 UNK        -0.4687 
     65 C         -81.2906   25.5594  -73.6460 C.2       1 UNK         0.5165 
     66 O         -80.4040   24.7106  -73.7969 O.2       1 UNK        -0.5079 
     67 H67       -79.7102   22.8703  -69.9839 H         1 UNK         0.0900 
     68 H68       -79.2679   24.4918  -69.4479 H         1 UNK         0.0900 
     69 H69       -80.6283   23.6565  -68.6958 H         1 UNK         0.0900 
     70 H70       -79.8935   26.0387  -70.9276 H         1 UNK         0.2959 
     71 H71       -82.5585   26.1627  -72.0328 H         1 UNK         0.1079 
     72 H72       -81.7921   28.2703  -73.0834 H         1 UNK         0.0837 
     73 H73       -80.1316   27.8852  -72.7269 H         1 UNK         0.0837 
     74 H74       -80.9845   30.8147  -71.6762 H         1 UNK         0.0685 
     75 H75       -80.3388   30.7032  -70.0559 H         1 UNK         0.0685 
     76 H76       -78.4634   28.4866  -70.0729 H         1 UNK         0.1434 
     77 H77       -75.5498   29.1961  -73.1346 H         1 UNK         0.1329 
     78 H78       -79.2334   31.3728  -73.1529 H         1 UNK         0.1335 
     79 H79       -76.8774   30.4281  -75.3361 H         1 UNK         0.0680 
     80 H80       -77.5911   31.9116  -74.7747 H         1 UNK         0.0680 
     81 H81       -74.9685   30.7766  -76.4305 H         1 UNK         0.1032 
     82 H82       -74.5521   32.4480  -76.5539 H         1 UNK         0.1032 
     83 H83       -72.6537   30.7617  -76.7875 H         1 UNK         0.0461 
     84 H84       -72.1411   33.0060  -77.4952 H         1 UNK         0.3453 
     85 H85       -71.1700   33.9932  -76.4358 H         1 UNK         0.3453 
     86 H86       -73.3991   30.0236  -74.0946 H         1 UNK         0.2984 
     87 H87       -70.4480   28.3419  -73.3118 H         1 UNK         0.0554 
     88 H88       -72.0970   28.1411  -71.5027 H         1 UNK         0.0847 
     89 H89       -73.3782   28.7635  -72.5289 H         1 UNK         0.0847 
     90 H90       -72.0390   29.8049  -72.0570 H         1 UNK         0.0847 
     91 H91       -72.9233   26.8935  -74.1936 H         1 UNK         0.3141 
     92 H92       -70.9917   23.9418  -74.8649 H         1 UNK         0.0743 
     93 H93       -73.3455   24.5905  -73.0122 H         1 UNK         0.0784 
     94 H94       -72.9817   23.0050  -73.6915 H         1 UNK         0.0784 
     95 H95       -71.8699   23.7551  -72.5567 H         1 UNK         0.0784 
     96 H96       -73.6786   24.6338  -75.5327 H         1 UNK         0.3213 
     97 H97       -72.9742   25.9250  -78.7929 H         1 UNK         0.0855 
     98 H98       -74.2487   23.2912  -77.8717 H         1 UNK         0.0814 
     99 H99       -72.9329   23.4359  -79.0300 H         1 UNK         0.0814 
    100 H100      -74.5165   24.0892  -79.4192 H         1 UNK         0.0814 
    101 H101      -75.4114   25.4181  -77.3551 H         1 UNK         0.3105 
    102 H102      -75.5652   28.6226  -75.7778 H         1 UNK         0.0547 
    103 H103      -76.5392   29.0432  -78.0224 H         1 UNK         0.0837 
    104 H104      -77.2414   27.4334  -78.0538 H         1 UNK         0.0837 
    105 H105      -77.8154   28.6236  -76.8885 H         1 UNK         0.0837 
    106 H106      -77.3537   26.4052  -75.7273 H         1 UNK         0.3020 
    107 H107      -75.7868   24.6544  -73.0568 H         1 UNK         0.1245 
    108 H108      -78.3279   25.0793  -72.3474 H         1 UNK         0.0781 
    109 H109      -78.0274   26.7065  -72.8542 H         1 UNK         0.0781 
    110 H110      -75.0752   27.5705  -71.4899 H         1 UNK         0.0836 
    111 H111      -75.7202   27.9576  -69.9195 H         1 UNK         0.0836 
    112 H112      -78.2528   24.3022  -74.4741 H         1 UNK         0.3022 
    113 H113      -76.7844   22.0668  -76.9049 H         1 UNK         0.0747 
    114 H114      -78.6958   20.7657  -76.0346 H         1 UNK         0.0793 
    115 H115      -77.4567   20.8801  -74.7970 H         1 UNK         0.0793 
    116 H116      -78.8970   21.8832  -74.6854 H         1 UNK         0.0793 
    117 H117      -79.4086   23.0983  -76.8087 H         1 UNK         0.3047 
    118 H118      -79.0318   25.9689  -78.8074 H         1 UNK         0.0822 
    119 H119      -80.3283   24.7398  -80.5314 H         1 UNK         0.0807 
    120 H120      -79.8522   23.1940  -79.8260 H         1 UNK         0.0807 
    121 H121      -78.6463   24.2395  -80.5628 H         1 UNK         0.0807 
    122 H122      -81.2827   24.3059  -78.1356 H         1 UNK         0.2946 
    123 H123      -82.8341   26.1166  -76.5535 H         1 UNK         0.1144 
    124 H124      -83.5454   23.9125  -75.5069 H         1 UNK         0.0793 
    125 H125      -81.8943   23.3292  -75.6711 H         1 UNK         0.0793 
    126 H126      -82.8508   23.7184  -77.0986 H         1 UNK         0.0793 
    127 H127      -82.7816   26.6870  -74.4218 H         1 UNK         0.2896 
@<TRIPOS>BOND
     1    1    2 1    
     2    1   67 1    
     3    1   68 1    
     4    1   69 1    
     5    2    3 2    
     6    2    4 am   BACKBONE|DICT|INTERRES
     7    4    5 1    
     8    4   70 1    
     9    5    6 1    
    10    5   65 1    
    11    5   71 1    
    12    6    7 1    
    13    6   72 1    
    14    6   73 1    
    15    7    8 1    
    16    8    9 1    
    17    8   74 1    
    18    8   75 1    
    19    9   10 ar   
    20    9   14 ar   
    21   10   11 ar   
    22   10   76 1    
    23   11   12 ar   
    24   11   48 1    
    25   12   13 ar   
    26   12   77 1    
    27   13   14 ar   
    28   13   15 1    
    29   14   78 1    
    30   15   16 1    
    31   15   79 1    
    32   15   80 1    
    33   16   17 1    
    34   17   18 1    
    35   17   81 1    
    36   17   82 1    
    37   18   19 1    
    38   18   22 1    
    39   18   83 1    
    40   19   20 am   BACKBONE|DICT|INTERRES
    41   19   21 2    
    42   20   84 1    
    43   20   85 1    
    44   22   23 am   BACKBONE|DICT|INTERRES
    45   22   86 1    
    46   23   24 2    
    47   23   25 1    
    48   25   26 1    
    49   25   27 1    
    50   25   87 1    
    51   26   88 1    
    52   26   89 1    
    53   26   90 1    
    54   27   28 am   BACKBONE|DICT|INTERRES
    55   27   91 1    
    56   28   29 2    
    57   28   30 1    
    58   30   31 1    
    59   30   32 1    
    60   30   92 1    
    61   31   93 1    
    62   31   94 1    
    63   31   95 1    
    64   32   33 am   BACKBONE|DICT|INTERRES
    65   32   96 1    
    66   33   34 2    
    67   33   35 1    
    68   35   36 1    
    69   35   37 1    
    70   35   97 1    
    71   36   98 1    
    72   36   99 1    
    73   36  100 1    
    74   37   38 am   BACKBONE|DICT|INTERRES
    75   37  101 1    
    76   38   39 2    
    77   38   40 1    
    78   40   41 1    
    79   40   42 1    
    80   40  102 1    
    81   41  103 1    
    82   41  104 1    
    83   41  105 1    
    84   42   43 am   BACKBONE|DICT|INTERRES
    85   42  106 1    
    86   43   44 2    
    87   43   45 1    
    88   45   46 1    
    89   45   49 1    
    90   45  107 1    
    91   46   47 1    
    92   46  108 1    
    93   46  109 1    
    94   47   48 1    
    95   48  110 1    
    96   48  111 1    
    97   49   50 am   BACKBONE|DICT|INTERRES
    98   49  112 1    
    99   50   51 2    
   100   50   52 1    
   101   52   53 1    
   102   52   54 1    
   103   52  113 1    
   104   53  114 1    
   105   53  115 1    
   106   53  116 1    
   107   54   55 am   BACKBONE|DICT|INTERRES
   108   54  117 1    
   109   55   56 2    
   110   55   57 1    
   111   57   58 1    
   112   57   59 1    
   113   57  118 1    
   114   58  119 1    
   115   58  120 1    
   116   58  121 1    
   117   59   60 am   BACKBONE|DICT|INTERRES
   118   59  122 1    
   119   60   61 2    
   120   60   62 1    
   121   62   63 1    
   122   62   64 1    
   123   62  123 1    
   124   63  124 1    
   125   63  125 1    
   126   63  126 1    
   127   64   65 am   BACKBONE|DICT|INTERRES
   128   64  127 1    
   129   65   66 2    
@<TRIPOS>SUBSTRUCTURE
     1 UNK         1 GROUP             0       ****    0 ROOT    
