@<TRIPOS>MOLECULE
3R135
127   129    1
SMALL
USER_CHARGES


@<TRIPOS>ATOM
      1 CA        -82.2843   23.1758  -70.0643 C.3       0 UNK        -0.1998 
      2 C         -81.4143   24.0804  -70.9250 C.2       0 UNK         0.4909 
      3 O         -80.2274   23.7980  -71.0827 O.2       0 UNK        -0.5240 
      4 N         -82.0086   25.1577  -71.4595 N.am      1 UNK        -0.4739 
      5 CA        -81.4360   26.1690  -72.3640 C.3       1 UNK         0.0864 
      6 C6        -80.1224   26.8291  -71.8649 C.3       11 UNK        -0.0881 
      7 S7        -80.2951   27.5995  -70.2164 S.3       11 UNK        -0.2682 
      8 C8        -80.3305   29.3786  -70.6079 C.3       11 UNK         0.0289 
      9 C9        -79.0385   29.8545  -71.2583 C.ar      11 UNK        -0.0687 
     10 C10       -79.0447   30.3054  -72.5819 C.ar      11 UNK        -0.0823 
     11 C11       -77.8612   30.7273  -73.1943 C.ar      11 UNK        -0.0830 
     12 C12       -76.6673   30.7080  -72.4677 C.ar      11 UNK        -0.1021 
     13 C13       -76.6472   30.2518  -71.1467 C.ar      11 UNK        -0.0753 
     14 C14       -77.8369   29.8357  -70.5425 C.ar      11 UNK        -0.0933 
     15 C15       -75.3297   30.1778  -70.3946 C.3       11 UNK         0.0166 
     16 S16       -74.4714   28.6282  -70.8027 S.3       11 UNK        -0.2615 
     17 C17       -72.7286   29.0601  -70.4684 C.3       11 UNK        -0.0865 
     18 CA        -72.0801   29.9882  -71.5355 C.3       10 UNK         0.0862 
     19 C         -70.5599   30.1736  -71.2546 C.2       10 UNK         0.5551 
     20 N         -69.6635   29.7907  -72.1557 N.am      10 UNK        -0.7319 
     21 O         -70.1896   30.6774  -70.1971 O.2       10 UNK        -0.5018 
     22 N         -72.4229   29.5841  -72.9094 N.am      10 UNK        -0.4509 
     23 C         -72.3463   30.3618  -73.9938 C.2       10 UNK         0.4899 
     24 O         -71.9015   31.5106  -73.9793 O.2       10 UNK        -0.4839 
     25 CA        -72.8636   29.7485  -75.3103 C.3       9 UNK         0.0222 
     26 CB        -72.7776   30.7262  -76.4970 C.3       9 UNK        -0.1966 
     27 N         -72.1839   28.4995  -75.6703 N.am      9 UNK        -0.4218 
     28 C         -72.4233   27.3043  -75.1169 C.2       9 UNK         0.5020 
     29 O         -73.1921   27.1335  -74.1699 O.2       9 UNK        -0.5274 
     30 CA        -71.6728   26.1057  -75.7040 C.3       8 UNK         0.0270 
     31 CB        -70.8844   25.3480  -74.6190 C.3       8 UNK        -0.1976 
     32 N         -72.6363   25.2137  -76.3466 N.am      8 UNK        -0.4313 
     33 C         -72.3493   24.3957  -77.3678 C.2       8 UNK         0.5041 
     34 O         -71.2238   24.2849  -77.8577 O.2       8 UNK        -0.5577 
     35 CA        -73.5021   23.5648  -77.9586 C.3       7 UNK         0.0284 
     36 CB        -73.8813   22.3992  -77.0302 C.3       7 UNK        -0.1958 
     37 N         -74.6847   24.3736  -78.2581 N.am      7 UNK        -0.4454 
     38 C         -74.7600   25.2780  -79.2459 C.2       7 UNK         0.5089 
     39 O         -73.8613   25.4784  -80.0637 O.2       7 UNK        -0.5125 
     40 CA        -76.0497   26.1181  -79.3283 C.3       6 UNK         0.0408 
     41 CB        -77.1277   25.3949  -80.1502 C.3       6 UNK        -0.1791 
     42 N         -76.5783   26.4728  -78.0080 N.am      6 UNK        -0.4762 
     43 C         -75.9373   27.2655  -77.1346 C.2       6 UNK         0.5007 
     44 O         -74.8813   27.8412  -77.3938 O.2       6 UNK        -0.5032 
     45 CA        -76.5568   27.4016  -75.7279 C.3       5 UNK         0.0783 
     46 C46       -77.5916   28.5545  -75.6666 C.3       11 UNK        -0.0857 
     47 S47       -76.7990   30.2000  -75.7177 S.3       11 UNK        -0.2512 
     48 C48       -77.8754   31.2010  -74.6412 C.3       11 UNK         0.0225 
     49 N         -77.1294   26.1269  -75.2782 N.am      5 UNK        -0.4615 
     50 C         -76.4082   25.0363  -74.9760 C.2       4 UNK         0.5053 
     51 O         -75.1802   24.9999  -75.0048 O.2       4 UNK        -0.5105 
     52 CA        -77.1799   23.7455  -74.6526 C.3       4 UNK         0.0263 
     53 CB        -77.5773   23.6985  -73.1731 C.3       4 UNK        -0.1981 
     54 N         -78.3651   23.5757  -75.4954 N.am      4 UNK        -0.4224 
     55 C         -78.2988   23.3374  -76.8137 C.2       3 UNK         0.4895 
     56 O         -77.2412   23.1596  -77.4171 O.2       3 UNK        -0.5091 
     57 CA        -79.6156   23.3429  -77.6093 C.3       3 UNK         0.0250 
     58 CB        -80.1713   21.9160  -77.7352 C.3       3 UNK        -0.1996 
     59 N         -80.6502   24.2202  -77.0554 N.am      3 UNK        -0.4254 
     60 C         -80.5300   25.5387  -76.8425 C.2       2 UNK         0.5004 
     61 O         -79.5088   26.1809  -77.0902 O.2       2 UNK        -0.5226 
     62 CA        -81.7403   26.2612  -76.2222 C.3       2 UNK         0.0269 
     63 CB        -83.0845   25.5464  -76.4892 C.3       2 UNK        -0.1926 
     64 N         -81.5914   26.5236  -74.7822 N.am      2 UNK        -0.4687 
     65 C         -81.3064   25.6398  -73.8111 C.2       1 UNK         0.5165 
     66 O         -80.9779   24.4704  -74.0271 O.2       1 UNK        -0.5079 
     67 H67       -83.3094   23.5390  -69.9932 H         1 UNK         0.0900 
     68 H68       -82.3093   22.1708  -70.4846 H         1 UNK         0.0900 
     69 H69       -81.8765   23.1135  -69.0557 H         1 UNK         0.0900 
     70 H70       -82.9924   25.2899  -71.2709 H         1 UNK         0.2959 
     71 H71       -82.1907   26.9569  -72.3945 H         1 UNK         0.1079 
     72 H72       -79.3170   26.1000  -71.7994 H         1 UNK         0.0837 
     73 H73       -79.7781   27.5743  -72.5823 H         1 UNK         0.0837 
     74 H74       -81.1911   29.5848  -71.2462 H         1 UNK         0.0685 
     75 H75       -80.4916   29.9387  -69.6858 H         1 UNK         0.0685 
     76 H76       -79.9714   30.3188  -73.1392 H         1 UNK         0.1434 
     77 H77       -75.7463   31.0213  -72.9410 H         1 UNK         0.1329 
     78 H78       -77.8261   29.4730  -69.5236 H         1 UNK         0.1335 
     79 H79       -74.7132   31.0368  -70.6610 H         1 UNK         0.0680 
     80 H80       -75.4914   30.2324  -69.3170 H         1 UNK         0.0680 
     81 H81       -72.6632   29.5135  -69.4774 H         1 UNK         0.1032 
     82 H82       -72.1742   28.1218  -70.4048 H         1 UNK         0.1032 
     83 H83       -72.5119   30.9806  -71.3981 H         1 UNK         0.0461 
     84 H84       -68.6821   29.9181  -71.9649 H         1 UNK         0.3453 
     85 H85       -69.9634   29.3893  -73.0290 H         1 UNK         0.3453 
     86 H86       -72.7981   28.6463  -73.0270 H         1 UNK         0.2984 
     87 H87       -73.9204   29.5250  -75.1534 H         1 UNK         0.0554 
     88 H88       -73.3211   31.6477  -76.2834 H         1 UNK         0.0847 
     89 H89       -73.2223   30.2957  -77.3947 H         1 UNK         0.0847 
     90 H90       -71.7467   30.9985  -76.7260 H         1 UNK         0.0847 
     91 H91       -71.5204   28.5566  -76.4293 H         1 UNK         0.3141 
     92 H92       -70.9669   26.4724  -76.4525 H         1 UNK         0.0743 
     93 H93       -71.5479   24.9198  -73.8663 H         1 UNK         0.0784 
     94 H94       -70.2979   24.5356  -75.0483 H         1 UNK         0.0784 
     95 H95       -70.1902   26.0132  -74.1040 H         1 UNK         0.0784 
     96 H96       -73.5824   25.2394  -75.9638 H         1 UNK         0.3213 
     97 H97       -73.1494   23.1355  -78.8991 H         1 UNK         0.0855 
     98 H98       -74.2474   22.7473  -76.0648 H         1 UNK         0.0814 
     99 H99       -73.0191   21.7592  -76.8387 H         1 UNK         0.0814 
    100 H100      -74.6567   21.7749  -77.4749 H         1 UNK         0.0814 
    101 H101      -75.5067   24.2173  -77.6842 H         1 UNK         0.3105 
    102 H102      -75.8064   27.0496  -79.8437 H         1 UNK         0.0547 
    103 H103      -76.7883   25.2359  -81.1744 H         1 UNK         0.0837 
    104 H104      -77.3660   24.4159  -79.7368 H         1 UNK         0.0837 
    105 H105      -78.0495   25.9747  -80.2000 H         1 UNK         0.0837 
    106 H106      -77.4721   26.0784  -77.7354 H         1 UNK         0.3020 
    107 H107      -75.7416   27.6399  -75.0397 H         1 UNK         0.1245 
    108 H108      -78.1673   28.4741  -74.7441 H         1 UNK         0.0781 
    109 H109      -78.3171   28.4856  -76.4789 H         1 UNK         0.0781 
    110 H110      -78.8875   31.1932  -75.0488 H         1 UNK         0.0836 
    111 H111      -77.5396   32.2382  -74.6755 H         1 UNK         0.0836 
    112 H112      -78.1351   26.0461  -75.3387 H         1 UNK         0.3022 
    113 H113      -76.5089   22.9049  -74.8427 H         1 UNK         0.0747 
    114 H114      -78.0388   22.7453  -72.9145 H         1 UNK         0.0793 
    115 H115      -76.7078   23.8266  -72.5269 H         1 UNK         0.0793 
    116 H116      -78.2869   24.4857  -72.9289 H         1 UNK         0.0793 
    117 H117      -79.2719   23.7247  -75.0636 H         1 UNK         0.3047 
    118 H118      -79.3872   23.7091  -78.6116 H         1 UNK         0.0822 
    119 H119      -81.0480   21.8859  -78.3826 H         1 UNK         0.0807 
    120 H120      -80.4544   21.5060  -76.7648 H         1 UNK         0.0807 
    121 H121      -79.4282   21.2448  -78.1686 H         1 UNK         0.0807 
    122 H122      -81.5141   23.7777  -76.7773 H         1 UNK         0.2946 
    123 H123      -81.7850   27.2340  -76.7154 H         1 UNK         0.1144 
    124 H124      -83.9237   26.1709  -76.1821 H         1 UNK         0.0793 
    125 H125      -83.1684   24.6020  -75.9502 H         1 UNK         0.0793 
    126 H126      -83.2179   25.3376  -77.5518 H         1 UNK         0.0793 
    127 H127      -81.7994   27.4737  -74.5072 H         1 UNK         0.2896 
@<TRIPOS>BOND
     1    1    2 1    
     2    1   67 1    
     3    1   68 1    
     4    1   69 1    
     5    2    3 2    
     6    2    4 am   BACKBONE|DICT|INTERRES
     7    4    5 1    
     8    4   70 1    
     9    5    6 1    
    10    5   65 1    
    11    5   71 1    
    12    6    7 1    
    13    6   72 1    
    14    6   73 1    
    15    7    8 1    
    16    8    9 1    
    17    8   74 1    
    18    8   75 1    
    19    9   10 ar   
    20    9   14 ar   
    21   10   11 ar   
    22   10   76 1    
    23   11   12 ar   
    24   11   48 1    
    25   12   13 ar   
    26   12   77 1    
    27   13   14 ar   
    28   13   15 1    
    29   14   78 1    
    30   15   16 1    
    31   15   79 1    
    32   15   80 1    
    33   16   17 1    
    34   17   18 1    
    35   17   81 1    
    36   17   82 1    
    37   18   19 1    
    38   18   22 1    
    39   18   83 1    
    40   19   20 am   BACKBONE|DICT|INTERRES
    41   19   21 2    
    42   20   84 1    
    43   20   85 1    
    44   22   23 am   BACKBONE|DICT|INTERRES
    45   22   86 1    
    46   23   24 2    
    47   23   25 1    
    48   25   26 1    
    49   25   27 1    
    50   25   87 1    
    51   26   88 1    
    52   26   89 1    
    53   26   90 1    
    54   27   28 am   BACKBONE|DICT|INTERRES
    55   27   91 1    
    56   28   29 2    
    57   28   30 1    
    58   30   31 1    
    59   30   32 1    
    60   30   92 1    
    61   31   93 1    
    62   31   94 1    
    63   31   95 1    
    64   32   33 am   BACKBONE|DICT|INTERRES
    65   32   96 1    
    66   33   34 2    
    67   33   35 1    
    68   35   36 1    
    69   35   37 1    
    70   35   97 1    
    71   36   98 1    
    72   36   99 1    
    73   36  100 1    
    74   37   38 am   BACKBONE|DICT|INTERRES
    75   37  101 1    
    76   38   39 2    
    77   38   40 1    
    78   40   41 1    
    79   40   42 1    
    80   40  102 1    
    81   41  103 1    
    82   41  104 1    
    83   41  105 1    
    84   42   43 am   BACKBONE|DICT|INTERRES
    85   42  106 1    
    86   43   44 2    
    87   43   45 1    
    88   45   46 1    
    89   45   49 1    
    90   45  107 1    
    91   46   47 1    
    92   46  108 1    
    93   46  109 1    
    94   47   48 1    
    95   48  110 1    
    96   48  111 1    
    97   49   50 am   BACKBONE|DICT|INTERRES
    98   49  112 1    
    99   50   51 2    
   100   50   52 1    
   101   52   53 1    
   102   52   54 1    
   103   52  113 1    
   104   53  114 1    
   105   53  115 1    
   106   53  116 1    
   107   54   55 am   BACKBONE|DICT|INTERRES
   108   54  117 1    
   109   55   56 2    
   110   55   57 1    
   111   57   58 1    
   112   57   59 1    
   113   57  118 1    
   114   58  119 1    
   115   58  120 1    
   116   58  121 1    
   117   59   60 am   BACKBONE|DICT|INTERRES
   118   59  122 1    
   119   60   61 2    
   120   60   62 1    
   121   62   63 1    
   122   62   64 1    
   123   62  123 1    
   124   63  124 1    
   125   63  125 1    
   126   63  126 1    
   127   64   65 am   BACKBONE|DICT|INTERRES
   128   64  127 1    
   129   65   66 2    
@<TRIPOS>SUBSTRUCTURE
     1 UNK         1 GROUP             0       ****    0 ROOT    
