@<TRIPOS>MOLECULE
3R135
127   129    1
SMALL
USER_CHARGES


@<TRIPOS>ATOM
      1 CA        -83.6189   26.2990  -73.9783 C.3       0 UNK        -0.1998 
      2 C         -82.4442   27.0756  -74.5525 C.2       0 UNK         0.4909 
      3 O         -82.5045   27.4949  -75.7083 O.2       0 UNK        -0.5240 
      4 N         -81.3832   27.2568  -73.7519 N.am      1 UNK        -0.4739 
      5 CA        -80.1243   27.9547  -74.0529 C.3       1 UNK         0.0864 
      6 C6        -79.0792   27.7106  -72.9372 C.3       11 UNK        -0.0881 
      7 S7        -79.6069   28.1289  -71.2437 S.3       11 UNK        -0.2682 
      8 C8        -78.2477   29.2170  -70.6755 C.3       11 UNK         0.0289 
      9 C9        -76.8359   28.6144  -70.6175 C.ar      11 UNK        -0.0687 
     10 C10       -76.5317   27.2972  -70.9908 C.ar      11 UNK        -0.0823 
     11 C11       -75.2123   26.8353  -70.9899 C.ar      11 UNK        -0.0830 
     12 C12       -74.1876   27.6844  -70.5633 C.ar      11 UNK        -0.1021 
     13 C13       -74.4748   28.9829  -70.1353 C.ar      11 UNK        -0.0753 
     14 C14       -75.7974   29.4372  -70.1706 C.ar      11 UNK        -0.0933 
     15 C15       -73.3633   29.8722  -69.5897 C.3       11 UNK         0.0166 
     16 S16       -72.5627   30.8827  -70.8780 S.3       11 UNK        -0.2615 
     17 C17       -73.8383   32.1567  -71.1981 C.3       11 UNK        -0.0865 
     18 CA        -74.4064   32.1453  -72.6459 C.3       10 UNK         0.0862 
     19 C         -73.5729   33.0513  -73.6020 C.2       10 UNK         0.5551 
     20 N         -72.9849   32.5467  -74.6790 N.am      10 UNK        -0.7319 
     21 O         -73.4715   34.2528  -73.3653 O.2       10 UNK        -0.5018 
     22 N         -74.6535   30.7776  -73.1290 N.am      10 UNK        -0.4509 
     23 C         -75.4703   30.4414  -74.1326 C.2       10 UNK         0.4899 
     24 O         -76.2366   31.2368  -74.6782 O.2       10 UNK        -0.4839 
     25 CA        -75.4101   28.9735  -74.6143 C.3       9 UNK         0.0222 
     26 CB        -75.9433   28.8162  -76.0540 C.3       9 UNK        -0.1966 
     27 N         -74.0872   28.3390  -74.4925 N.am      9 UNK        -0.4218 
     28 C         -72.9259   28.7887  -74.9915 C.2       9 UNK         0.5020 
     29 O         -72.8004   29.8506  -75.6016 O.2       9 UNK        -0.5274 
     30 CA        -71.6862   27.9115  -74.7522 C.3       8 UNK         0.0270 
     31 CB        -71.3549   27.7999  -73.2537 C.3       8 UNK        -0.1976 
     32 N         -71.7649   26.5735  -75.3518 N.am      8 UNK        -0.4313 
     33 C         -71.8755   26.3325  -76.6678 C.2       8 UNK         0.5041 
     34 O         -72.0722   27.2010  -77.5176 O.2       8 UNK        -0.5577 
     35 CA        -71.6727   24.8851  -77.1299 C.3       7 UNK         0.0284 
     36 CB        -70.1883   24.4800  -77.0099 C.3       7 UNK        -0.1958 
     37 N         -72.5352   23.9377  -76.4200 N.am      7 UNK        -0.4454 
     38 C         -72.8206   22.7088  -76.8758 C.2       7 UNK         0.5089 
     39 O         -72.3968   22.2602  -77.9422 O.2       7 UNK        -0.5125 
     40 CA        -73.7138   21.8082  -76.0042 C.3       6 UNK         0.0408 
     41 CB        -72.8488   20.8421  -75.1786 C.3       6 UNK        -0.1791 
     42 N         -74.6016   22.5445  -75.1034 N.am      6 UNK        -0.4762 
     43 C         -75.6861   23.2281  -75.4918 C.2       6 UNK         0.5007 
     44 O         -76.0438   23.3383  -76.6671 O.2       6 UNK        -0.5032 
     45 CA        -76.4837   23.9240  -74.3703 C.3       5 UNK         0.0783 
     46 C46       -75.9340   25.3384  -74.0630 C.3       11 UNK        -0.0857 
     47 S47       -74.3531   25.3029  -73.1488 S.3       11 UNK        -0.2512 
     48 C48       -74.8959   25.4066  -71.4119 C.3       11 UNK         0.0225 
     49 N         -77.9130   23.9652  -74.6898 N.am      5 UNK        -0.4615 
     50 C         -78.7266   22.9033  -74.6323 C.2       4 UNK         0.5053 
     51 O         -78.3463   21.7767  -74.3104 O.2       4 UNK        -0.5105 
     52 CA        -80.2156   23.1192  -74.9381 C.3       4 UNK         0.0263 
     53 CB        -80.9371   23.6399  -73.6839 C.3       4 UNK        -0.1981 
     54 N         -80.4634   24.0365  -76.0589 N.am      4 UNK        -0.4224 
     55 C         -81.2041   23.7226  -77.1349 C.2       3 UNK         0.4895 
     56 O         -81.6538   22.5933  -77.3382 O.2       3 UNK        -0.5091 
     57 CA        -81.5530   24.8289  -78.1524 C.3       3 UNK         0.0250 
     58 CB        -83.0782   25.0196  -78.2354 C.3       3 UNK        -0.1996 
     59 N         -80.9469   26.1227  -77.8391 N.am      3 UNK        -0.4254 
     60 C         -79.8063   26.5840  -78.3701 C.2       2 UNK         0.5004 
     61 O         -79.1635   25.9887  -79.2351 O.2       2 UNK        -0.5226 
     62 CA        -79.2714   27.9278  -77.8322 C.3       2 UNK         0.0269 
     63 CB        -79.6387   29.0763  -78.7854 C.3       2 UNK        -0.1926 
     64 N         -79.7216   28.2664  -76.4742 N.am      2 UNK        -0.4687 
     65 C         -79.5126   27.5006  -75.3954 C.2       1 UNK         0.5165 
     66 O         -78.9019   26.4311  -75.4413 O.2       1 UNK        -0.5079 
     67 H67       -83.4342   25.9747  -72.9523 H         1 UNK         0.0900 
     68 H68       -83.8138   25.4137  -74.5857 H         1 UNK         0.0900 
     69 H69       -84.5156   26.9208  -73.9830 H         1 UNK         0.0900 
     70 H70       -81.4302   26.8963  -72.8090 H         1 UNK         0.2959 
     71 H71       -80.3376   29.0240  -74.1071 H         1 UNK         0.1079 
     72 H72       -78.8069   26.6543  -72.9140 H         1 UNK         0.0837 
     73 H73       -78.1681   28.2636  -73.1646 H         1 UNK         0.0837 
     74 H74       -78.2244   30.0957  -71.3223 H         1 UNK         0.0685 
     75 H75       -78.5086   29.5781  -69.6797 H         1 UNK         0.0685 
     76 H76       -77.3125   26.6143  -71.2824 H         1 UNK         0.1434 
     77 H77       -73.1680   27.3248  -70.5369 H         1 UNK         0.1329 
     78 H78       -76.0298   30.4386  -69.8385 H         1 UNK         0.1335 
     79 H79       -73.7484   30.5209  -68.8013 H         1 UNK         0.0680 
     80 H80       -72.6004   29.2519  -69.1167 H         1 UNK         0.0680 
     81 H81       -73.4181   33.1316  -70.9423 H         1 UNK         0.1032 
     82 H82       -74.6585   32.0336  -70.4940 H         1 UNK         0.1032 
     83 H83       -75.3818   32.6331  -72.5946 H         1 UNK         0.0461 
     84 H84       -72.4597   33.1598  -75.2809 H         1 UNK         0.3453 
     85 H85       -73.0485   31.5574  -74.9065 H         1 UNK         0.3453 
     86 H86       -74.0632   30.0668  -72.7212 H         1 UNK         0.2984 
     87 H87       -76.0657   28.4128  -73.9503 H         1 UNK         0.0554 
     88 H88       -75.9625   27.7733  -76.3670 H         1 UNK         0.0847 
     89 H89       -75.3313   29.3666  -76.7693 H         1 UNK         0.0847 
     90 H90       -76.9608   29.1975  -76.1396 H         1 UNK         0.0847 
     91 H91       -74.0683   27.4624  -73.9857 H         1 UNK         0.3141 
     92 H92       -70.8465   28.4212  -75.2298 H         1 UNK         0.0743 
     93 H93       -72.0975   27.2174  -72.7103 H         1 UNK         0.0784 
     94 H94       -70.3845   27.3284  -73.0981 H         1 UNK         0.0784 
     95 H95       -71.3090   28.7857  -72.7890 H         1 UNK         0.0784 
     96 H96       -71.5766   25.7980  -74.7338 H         1 UNK         0.3213 
     97 H97       -71.9440   24.8587  -78.1882 H         1 UNK         0.0855 
     98 H98       -69.8741   24.3913  -75.9695 H         1 UNK         0.0814 
     99 H99       -69.5413   25.2187  -77.4853 H         1 UNK         0.0814 
    100 H100      -69.9922   23.5257  -77.4986 H         1 UNK         0.0814 
    101 H101      -72.9743   24.2521  -75.5661 H         1 UNK         0.3105 
    102 H102      -74.3338   21.2130  -76.6782 H         1 UNK         0.0547 
    103 H103      -72.1963   20.2533  -75.8250 H         1 UNK         0.0837 
    104 H104      -72.2111   21.3730  -74.4707 H         1 UNK         0.0837 
    105 H105      -73.4634   20.1384  -74.6169 H         1 UNK         0.0837 
    106 H106      -74.3641   22.5234  -74.1211 H         1 UNK         0.3020 
    107 H107      -76.3857   23.3197  -73.4651 H         1 UNK         0.1245 
    108 H108      -76.6556   25.9045  -73.4770 H         1 UNK         0.0781 
    109 H109      -75.7991   25.9041  -74.9855 H         1 UNK         0.0781 
    110 H110      -74.1021   25.0109  -70.7764 H         1 UNK         0.0836 
    111 H111      -75.7571   24.7554  -71.2540 H         1 UNK         0.0836 
    112 H112      -78.2771   24.8657  -74.9953 H         1 UNK         0.3022 
    113 H113      -80.6255   22.1317  -75.1606 H         1 UNK         0.0747 
    114 H114      -82.0101   23.7269  -73.8523 H         1 UNK         0.0793 
    115 H115      -80.7974   22.9596  -72.8424 H         1 UNK         0.0793 
    116 H116      -80.5595   24.6154  -73.3778 H         1 UNK         0.0793 
    117 H117      -80.0593   24.9648  -75.9892 H         1 UNK         0.3047 
    118 H118      -81.2056   24.4843  -79.1288 H         1 UNK         0.0822 
    119 H119      -83.3433   25.7717  -78.9789 H         1 UNK         0.0807 
    120 H120      -83.4985   25.3325  -77.2787 H         1 UNK         0.0807 
    121 H121      -83.5769   24.0932  -78.5237 H         1 UNK         0.0807 
    122 H122      -81.4210   26.6874  -77.1381 H         1 UNK         0.2946 
    123 H123      -78.1837   27.8382  -77.8070 H         1 UNK         0.1144 
    124 H124      -79.2966   28.8670  -79.8002 H         1 UNK         0.0793 
    125 H125      -79.1742   30.0128  -78.4764 H         1 UNK         0.0793 
    126 H126      -80.7172   29.2327  -78.8304 H         1 UNK         0.0793 
    127 H127      -80.2869   29.0986  -76.3794 H         1 UNK         0.2896 
@<TRIPOS>BOND
     1    1    2 1    
     2    1   67 1    
     3    1   68 1    
     4    1   69 1    
     5    2    3 2    
     6    2    4 am   BACKBONE|DICT|INTERRES
     7    4    5 1    
     8    4   70 1    
     9    5    6 1    
    10    5   65 1    
    11    5   71 1    
    12    6    7 1    
    13    6   72 1    
    14    6   73 1    
    15    7    8 1    
    16    8    9 1    
    17    8   74 1    
    18    8   75 1    
    19    9   10 ar   
    20    9   14 ar   
    21   10   11 ar   
    22   10   76 1    
    23   11   12 ar   
    24   11   48 1    
    25   12   13 ar   
    26   12   77 1    
    27   13   14 ar   
    28   13   15 1    
    29   14   78 1    
    30   15   16 1    
    31   15   79 1    
    32   15   80 1    
    33   16   17 1    
    34   17   18 1    
    35   17   81 1    
    36   17   82 1    
    37   18   19 1    
    38   18   22 1    
    39   18   83 1    
    40   19   20 am   BACKBONE|DICT|INTERRES
    41   19   21 2    
    42   20   84 1    
    43   20   85 1    
    44   22   23 am   BACKBONE|DICT|INTERRES
    45   22   86 1    
    46   23   24 2    
    47   23   25 1    
    48   25   26 1    
    49   25   27 1    
    50   25   87 1    
    51   26   88 1    
    52   26   89 1    
    53   26   90 1    
    54   27   28 am   BACKBONE|DICT|INTERRES
    55   27   91 1    
    56   28   29 2    
    57   28   30 1    
    58   30   31 1    
    59   30   32 1    
    60   30   92 1    
    61   31   93 1    
    62   31   94 1    
    63   31   95 1    
    64   32   33 am   BACKBONE|DICT|INTERRES
    65   32   96 1    
    66   33   34 2    
    67   33   35 1    
    68   35   36 1    
    69   35   37 1    
    70   35   97 1    
    71   36   98 1    
    72   36   99 1    
    73   36  100 1    
    74   37   38 am   BACKBONE|DICT|INTERRES
    75   37  101 1    
    76   38   39 2    
    77   38   40 1    
    78   40   41 1    
    79   40   42 1    
    80   40  102 1    
    81   41  103 1    
    82   41  104 1    
    83   41  105 1    
    84   42   43 am   BACKBONE|DICT|INTERRES
    85   42  106 1    
    86   43   44 2    
    87   43   45 1    
    88   45   46 1    
    89   45   49 1    
    90   45  107 1    
    91   46   47 1    
    92   46  108 1    
    93   46  109 1    
    94   47   48 1    
    95   48  110 1    
    96   48  111 1    
    97   49   50 am   BACKBONE|DICT|INTERRES
    98   49  112 1    
    99   50   51 2    
   100   50   52 1    
   101   52   53 1    
   102   52   54 1    
   103   52  113 1    
   104   53  114 1    
   105   53  115 1    
   106   53  116 1    
   107   54   55 am   BACKBONE|DICT|INTERRES
   108   54  117 1    
   109   55   56 2    
   110   55   57 1    
   111   57   58 1    
   112   57   59 1    
   113   57  118 1    
   114   58  119 1    
   115   58  120 1    
   116   58  121 1    
   117   59   60 am   BACKBONE|DICT|INTERRES
   118   59  122 1    
   119   60   61 2    
   120   60   62 1    
   121   62   63 1    
   122   62   64 1    
   123   62  123 1    
   124   63  124 1    
   125   63  125 1    
   126   63  126 1    
   127   64   65 am   BACKBONE|DICT|INTERRES
   128   64  127 1    
   129   65   66 2    
@<TRIPOS>SUBSTRUCTURE
     1 UNK         1 GROUP             0       ****    0 ROOT    
