@<TRIPOS>MOLECULE
3R135
127   129    1
SMALL
USER_CHARGES


@<TRIPOS>ATOM
      1 CA        -80.1752   23.7412  -71.6637 C.3       0 UNK        -0.1998 
      2 C         -80.9255   24.6514  -72.6232 C.2       0 UNK         0.4909 
      3 O         -81.7691   24.1752  -73.3830 O.2       0 UNK        -0.5240 
      4 N         -80.6338   25.9583  -72.5886 N.am      1 UNK        -0.4739 
      5 CA        -81.2367   26.9658  -73.4696 C.3       1 UNK         0.0864 
      6 C6        -80.9795   28.4111  -72.9789 C.3       11 UNK        -0.0881 
      7 S7        -81.7231   28.7012  -71.3359 S.3       11 UNK        -0.2682 
      8 C8        -80.7555   30.1200  -70.7114 C.3       11 UNK         0.0289 
      9 C9        -79.2556   29.8555  -70.6001 C.ar      11 UNK        -0.0687 
     10 C10       -78.7675   28.6244  -70.1432 C.ar      11 UNK        -0.0823 
     11 C11       -77.3932   28.3770  -70.1062 C.ar      11 UNK        -0.0830 
     12 C12       -76.5017   29.3934  -70.4539 C.ar      11 UNK        -0.1021 
     13 C13       -76.9715   30.6256  -70.9091 C.ar      11 UNK        -0.0753 
     14 C14       -78.3492   30.8533  -70.9789 C.ar      11 UNK        -0.0933 
     15 C15       -75.9776   31.6848  -71.3553 C.3       11 UNK         0.0166 
     16 S16       -75.4014   31.3583  -73.0555 S.3       11 UNK        -0.2615 
     17 C17       -73.6017   31.6569  -72.9103 C.3       11 UNK        -0.0865 
     18 CA        -72.7296   30.3795  -73.0643 C.3       10 UNK         0.0862 
     19 C         -72.9450   29.3348  -71.9346 C.2       10 UNK         0.5551 
     20 N         -73.2768   28.0838  -72.2312 N.am      10 UNK        -0.7319 
     21 O         -72.7765   29.6604  -70.7620 O.2       10 UNK        -0.5018 
     22 N         -72.7760   29.8215  -74.4251 N.am      10 UNK        -0.4509 
     23 C         -72.0047   30.2363  -75.4367 C.2       10 UNK         0.4899 
     24 O         -71.2136   31.1784  -75.3543 O.2       10 UNK        -0.4839 
     25 CA        -72.1371   29.4565  -76.7574 C.3       9 UNK         0.0222 
     26 CB        -71.1119   29.8882  -77.8271 C.3       9 UNK        -0.1966 
     27 N         -72.1024   28.0037  -76.5592 N.am      9 UNK        -0.4218 
     28 C         -71.1184   27.2583  -76.0315 C.2       9 UNK         0.5020 
     29 O         -70.0386   27.7127  -75.6511 O.2       9 UNK        -0.5274 
     30 CA        -71.3750   25.7430  -75.8895 C.3       8 UNK         0.0270 
     31 CB        -71.5403   25.3610  -74.4092 C.3       8 UNK        -0.1976 
     32 N         -72.5452   25.2696  -76.6356 N.am      8 UNK        -0.4313 
     33 C         -72.5991   25.1285  -77.9676 C.2       8 UNK         0.5041 
     34 O         -71.6304   25.2803  -78.7124 O.2       8 UNK        -0.5577 
     35 CA        -73.9787   24.8173  -78.5751 C.3       7 UNK         0.0284 
     36 CB        -74.2747   23.3104  -78.5205 C.3       7 UNK        -0.1958 
     37 N         -75.0626   25.5637  -77.9264 N.am      7 UNK        -0.4454 
     38 C         -75.1819   26.8996  -77.9397 C.2       7 UNK         0.5089 
     39 O         -74.4233   27.6468  -78.5554 O.2       7 UNK        -0.5125 
     40 CA        -76.2967   27.5168  -77.0814 C.3       6 UNK         0.0408 
     41 CB        -77.6273   27.5408  -77.8469 C.3       6 UNK        -0.1791 
     42 N         -76.4715   26.8237  -75.8051 N.am      6 UNK        -0.4762 
     43 C         -75.5817   26.8282  -74.8021 C.2       6 UNK         0.5007 
     44 O         -74.5270   27.4673  -74.8139 O.2       6 UNK        -0.5032 
     45 CA        -75.9173   25.9433  -73.5862 C.3       5 UNK         0.0783 
     46 C46       -76.8937   26.6857  -72.6520 C.3       11 UNK        -0.0857 
     47 S47       -77.2633   25.7818  -71.1054 S.3       11 UNK        -0.2512 
     48 C48       -76.8623   26.9864  -69.7887 C.3       11 UNK         0.0225 
     49 N         -76.4060   24.6211  -73.9917 N.am      5 UNK        -0.4615 
     50 C         -75.6524   23.7113  -74.6234 C.2       4 UNK         0.5053 
     51 O         -74.4789   23.9016  -74.9420 O.2       4 UNK        -0.5105 
     52 CA        -76.3207   22.3747  -74.9879 C.3       4 UNK         0.0263 
     53 CB        -76.3117   21.4270  -73.7777 C.3       4 UNK        -0.1981 
     54 N         -77.6887   22.4919  -75.5057 N.am      4 UNK        -0.4224 
     55 C         -78.0686   23.2373  -76.5536 C.2       3 UNK         0.4895 
     56 O         -77.3106   23.9888  -77.1674 O.2       3 UNK        -0.5091 
     57 CA        -79.5379   23.1599  -76.9895 C.3       3 UNK         0.0250 
     58 CB        -80.4081   22.1771  -76.1752 C.3       3 UNK        -0.1996 
     59 N         -80.0788   24.5081  -76.8991 N.am      3 UNK        -0.4254 
     60 C         -81.0797   25.0294  -77.6107 C.2       2 UNK         0.5004 
     61 O         -81.7172   24.3992  -78.4565 O.2       2 UNK        -0.5226 
     62 CA        -81.4261   26.5053  -77.3064 C.3       2 UNK         0.0269 
     63 CB        -82.6441   27.0043  -78.1066 C.3       2 UNK        -0.1926 
     64 N         -81.6654   26.7550  -75.8783 N.am      2 UNK        -0.4687 
     65 C         -80.7349   26.7734  -74.9134 C.2       1 UNK         0.5165 
     66 O         -79.5277   26.6196  -75.1270 O.2       1 UNK        -0.5079 
     67 H67       -79.8559   24.2792  -70.7714 H         1 UNK         0.0900 
     68 H68       -79.2947   23.3226  -72.1500 H         1 UNK         0.0900 
     69 H69       -80.8133   22.9175  -71.3443 H         1 UNK         0.0900 
     70 H70       -79.9204   26.2963  -71.9586 H         1 UNK         0.2959 
     71 H71       -82.3165   26.7989  -73.4624 H         1 UNK         0.1079 
     72 H72       -79.9075   28.6146  -72.9458 H         1 UNK         0.0837 
     73 H73       -81.4085   29.1376  -73.6720 H         1 UNK         0.0837 
     74 H74       -81.1334   30.3931  -69.7255 H         1 UNK         0.0685 
     75 H75       -80.9457   30.9742  -71.3635 H         1 UNK         0.0685 
     76 H76       -79.4553   27.8372  -69.8673 H         1 UNK         0.1434 
     77 H77       -75.4376   29.2067  -70.4290 H         1 UNK         0.1329 
     78 H78       -78.7143   31.8042  -71.3429 H         1 UNK         0.1335 
     79 H79       -76.4256   32.6787  -71.3130 H         1 UNK         0.0680 
     80 H80       -75.1405   31.6952  -70.6558 H         1 UNK         0.0680 
     81 H81       -73.3740   32.1524  -71.9655 H         1 UNK         0.1032 
     82 H82       -73.3228   32.3802  -73.6778 H         1 UNK         0.1032 
     83 H83       -71.6980   30.6961  -72.8972 H         1 UNK         0.0461 
     84 H84       -73.3731   27.4204  -71.4803 H         1 UNK         0.3453 
     85 H85       -73.4661   27.8077  -73.1847 H         1 UNK         0.3453 
     86 H86       -73.4189   29.0501  -74.5761 H         1 UNK         0.2984 
     87 H87       -73.1308   29.6861  -77.1443 H         1 UNK         0.0554 
     88 H88       -71.2579   29.3397  -78.7578 H         1 UNK         0.0847 
     89 H89       -70.0859   29.7227  -77.4970 H         1 UNK         0.0847 
     90 H90       -71.2118   30.9494  -78.0582 H         1 UNK         0.0847 
     91 H91       -72.9499   27.5213  -76.8283 H         1 UNK         0.3141 
     92 H92       -70.4924   25.2293  -76.2761 H         1 UNK         0.0743 
     93 H93       -72.4251   25.8219  -73.9708 H         1 UNK         0.0784 
     94 H94       -71.6331   24.2817  -74.2872 H         1 UNK         0.0784 
     95 H95       -70.6793   25.6811  -73.8209 H         1 UNK         0.0784 
     96 H96       -73.3683   25.0310  -76.0874 H         1 UNK         0.3213 
     97 H97       -73.9535   25.1204  -79.6241 H         1 UNK         0.0855 
     98 H98       -74.3046   22.9408  -77.4959 H         1 UNK         0.0814 
     99 H99       -73.5066   22.7438  -79.0485 H         1 UNK         0.0814 
    100 H100      -75.2309   23.0762  -78.9887 H         1 UNK         0.0814 
    101 H101      -75.7812   25.0183  -77.4536 H         1 UNK         0.3105 
    102 H102      -76.0138   28.5492  -76.8644 H         1 UNK         0.0547 
    103 H103      -77.5176   28.0493  -78.8057 H         1 UNK         0.0837 
    104 H104      -77.9963   26.5350  -78.0503 H         1 UNK         0.0837 
    105 H105      -78.3908   28.0763  -77.2832 H         1 UNK         0.0837 
    106 H106      -77.3265   26.2955  -75.6889 H         1 UNK         0.3020 
    107 H107      -74.9849   25.7874  -73.0390 H         1 UNK         0.1245 
    108 H108      -77.8393   26.8870  -73.1555 H         1 UNK         0.0781 
    109 H109      -76.4702   27.6615  -72.4218 H         1 UNK         0.0781 
    110 H110      -75.7802   27.0079  -69.6504 H         1 UNK         0.0836 
    111 H111      -77.2851   26.6400  -68.8448 H         1 UNK         0.0836 
    112 H112      -77.3609   24.3971  -73.7585 H         1 UNK         0.3022 
    113 H113      -75.7196   21.9187  -75.7768 H         1 UNK         0.0747 
    114 H114      -76.6692   20.4332  -74.0479 H         1 UNK         0.0793 
    115 H115      -75.3014   21.3079  -73.3830 H         1 UNK         0.0793 
    116 H116      -76.9366   21.8002  -72.9652 H         1 UNK         0.0793 
    117 H117      -78.3864   21.9115  -75.0634 H         1 UNK         0.3047 
    118 H118      -79.5390   22.8460  -78.0354 H         1 UNK         0.0822 
    119 H119      -80.0265   21.1573  -76.2420 H         1 UNK         0.0807 
    120 H120      -81.4296   22.1550  -76.5557 H         1 UNK         0.0807 
    121 H121      -80.4621   22.4529  -75.1213 H         1 UNK         0.0807 
    122 H122      -79.6178   25.1260  -76.2358 H         1 UNK         0.2946 
    123 H123      -80.5653   27.0990  -77.6184 H         1 UNK         0.1144 
    124 H124      -82.4825   26.8885  -79.1793 H         1 UNK         0.0793 
    125 H125      -82.8333   28.0623  -77.9239 H         1 UNK         0.0793 
    126 H126      -83.5489   26.4513  -77.8512 H         1 UNK         0.0793 
    127 H127      -82.6343   26.8532  -75.6097 H         1 UNK         0.2896 
@<TRIPOS>BOND
     1    1    2 1    
     2    1   67 1    
     3    1   68 1    
     4    1   69 1    
     5    2    3 2    
     6    2    4 am   BACKBONE|DICT|INTERRES
     7    4    5 1    
     8    4   70 1    
     9    5    6 1    
    10    5   65 1    
    11    5   71 1    
    12    6    7 1    
    13    6   72 1    
    14    6   73 1    
    15    7    8 1    
    16    8    9 1    
    17    8   74 1    
    18    8   75 1    
    19    9   10 ar   
    20    9   14 ar   
    21   10   11 ar   
    22   10   76 1    
    23   11   12 ar   
    24   11   48 1    
    25   12   13 ar   
    26   12   77 1    
    27   13   14 ar   
    28   13   15 1    
    29   14   78 1    
    30   15   16 1    
    31   15   79 1    
    32   15   80 1    
    33   16   17 1    
    34   17   18 1    
    35   17   81 1    
    36   17   82 1    
    37   18   19 1    
    38   18   22 1    
    39   18   83 1    
    40   19   20 am   BACKBONE|DICT|INTERRES
    41   19   21 2    
    42   20   84 1    
    43   20   85 1    
    44   22   23 am   BACKBONE|DICT|INTERRES
    45   22   86 1    
    46   23   24 2    
    47   23   25 1    
    48   25   26 1    
    49   25   27 1    
    50   25   87 1    
    51   26   88 1    
    52   26   89 1    
    53   26   90 1    
    54   27   28 am   BACKBONE|DICT|INTERRES
    55   27   91 1    
    56   28   29 2    
    57   28   30 1    
    58   30   31 1    
    59   30   32 1    
    60   30   92 1    
    61   31   93 1    
    62   31   94 1    
    63   31   95 1    
    64   32   33 am   BACKBONE|DICT|INTERRES
    65   32   96 1    
    66   33   34 2    
    67   33   35 1    
    68   35   36 1    
    69   35   37 1    
    70   35   97 1    
    71   36   98 1    
    72   36   99 1    
    73   36  100 1    
    74   37   38 am   BACKBONE|DICT|INTERRES
    75   37  101 1    
    76   38   39 2    
    77   38   40 1    
    78   40   41 1    
    79   40   42 1    
    80   40  102 1    
    81   41  103 1    
    82   41  104 1    
    83   41  105 1    
    84   42   43 am   BACKBONE|DICT|INTERRES
    85   42  106 1    
    86   43   44 2    
    87   43   45 1    
    88   45   46 1    
    89   45   49 1    
    90   45  107 1    
    91   46   47 1    
    92   46  108 1    
    93   46  109 1    
    94   47   48 1    
    95   48  110 1    
    96   48  111 1    
    97   49   50 am   BACKBONE|DICT|INTERRES
    98   49  112 1    
    99   50   51 2    
   100   50   52 1    
   101   52   53 1    
   102   52   54 1    
   103   52  113 1    
   104   53  114 1    
   105   53  115 1    
   106   53  116 1    
   107   54   55 am   BACKBONE|DICT|INTERRES
   108   54  117 1    
   109   55   56 2    
   110   55   57 1    
   111   57   58 1    
   112   57   59 1    
   113   57  118 1    
   114   58  119 1    
   115   58  120 1    
   116   58  121 1    
   117   59   60 am   BACKBONE|DICT|INTERRES
   118   59  122 1    
   119   60   61 2    
   120   60   62 1    
   121   62   63 1    
   122   62   64 1    
   123   62  123 1    
   124   63  124 1    
   125   63  125 1    
   126   63  126 1    
   127   64   65 am   BACKBONE|DICT|INTERRES
   128   64  127 1    
   129   65   66 2    
@<TRIPOS>SUBSTRUCTURE
     1 UNK         1 GROUP             0       ****    0 ROOT    
