@<TRIPOS>MOLECULE
3R135
127   129    1
SMALL
USER_CHARGES


@<TRIPOS>ATOM
      1 CA        -80.5051   25.0857  -69.3813 C.3       0 UNK        -0.1998 
      2 C         -81.3474   25.6242  -70.5281 C.2       0 UNK         0.4909 
      3 O         -82.5761   25.5895  -70.4577 O.2       0 UNK        -0.5240 
      4 N         -80.6924   26.1144  -71.5834 N.am      1 UNK        -0.4739 
      5 CA        -81.2934   26.5988  -72.8229 C.3       1 UNK         0.0864 
      6 C6        -82.0572   27.9562  -72.6814 C.3       11 UNK        -0.0881 
      7 S7        -81.1605   29.5480  -72.8157 S.3       11 UNK        -0.2682 
      8 C8        -79.9796   29.5180  -71.4293 C.3       11 UNK         0.0289 
      9 C9        -78.6131   28.9924  -71.8516 C.ar      11 UNK        -0.0687 
     10 C10       -78.0390   27.9066  -71.1852 C.ar      11 UNK        -0.0823 
     11 C11       -76.7977   27.4046  -71.5837 C.ar      11 UNK        -0.0830 
     12 C12       -76.1052   28.0250  -72.6273 C.ar      11 UNK        -0.1021 
     13 C13       -76.6592   29.1210  -73.2925 C.ar      11 UNK        -0.0753 
     14 C14       -77.9128   29.5998  -72.9009 C.ar      11 UNK        -0.0933 
     15 C15       -75.9078   29.7770  -74.4398 C.3       11 UNK         0.0166 
     16 S16       -75.1283   31.3275  -73.9020 S.3       11 UNK        -0.2615 
     17 C17       -74.1208   31.7588  -75.3662 C.3       11 UNK        -0.0865 
     18 CA        -72.6544   32.1279  -75.0166 C.3       10 UNK         0.0862 
     19 C         -72.5588   33.4996  -74.2817 C.2       10 UNK         0.5551 
     20 N         -72.1184   33.5568  -73.0305 N.am      10 UNK        -0.7319 
     21 O         -72.8806   34.5312  -74.8668 O.2       10 UNK        -0.5018 
     22 N         -71.9547   31.0040  -74.3733 N.am      10 UNK        -0.4509 
     23 C         -70.6307   30.8929  -74.2192 C.2       10 UNK         0.4899 
     24 O         -69.8200   31.7271  -74.6224 O.2       10 UNK        -0.4839 
     25 CA        -70.1128   29.6301  -73.5077 C.3       9 UNK         0.0222 
     26 CB        -70.4759   29.6312  -72.0084 C.3       9 UNK        -0.1966 
     27 N         -70.5049   28.3796  -74.1730 N.am      9 UNK        -0.4218 
     28 C         -71.7295   27.8499  -74.2990 C.2       9 UNK         0.5020 
     29 O         -72.7484   28.3211  -73.7890 O.2       9 UNK        -0.5274 
     30 CA        -71.8233   26.5574  -75.1263 C.3       8 UNK         0.0270 
     31 CB        -71.7941   25.3303  -74.2020 C.3       8 UNK        -0.1976 
     32 N         -73.0317   26.5183  -75.9543 N.am      8 UNK        -0.4313 
     33 C         -73.3005   27.3717  -76.9542 C.2       8 UNK         0.5041 
     34 O         -72.5246   28.2609  -77.3113 O.2       8 UNK        -0.5577 
     35 CA        -74.6587   27.2201  -77.6731 C.3       7 UNK         0.0284 
     36 CB        -74.6282   27.7569  -79.1194 C.3       7 UNK        -0.1958 
     37 N         -75.2177   25.8635  -77.6441 N.am      7 UNK        -0.4454 
     38 C         -74.6751   24.7303  -78.1123 C.2       7 UNK         0.5089 
     39 O         -73.5741   24.6638  -78.6616 O.2       7 UNK        -0.5125 
     40 CA        -75.5206   23.4568  -77.9017 C.3       6 UNK         0.0408 
     41 CB        -74.7439   22.1579  -78.2024 C.3       6 UNK        -0.1791 
     42 N         -76.1353   23.4015  -76.5677 N.am      6 UNK        -0.4762 
     43 C         -75.5074   23.4003  -75.3805 C.2       6 UNK         0.5007 
     44 O         -74.2826   23.4217  -75.2646 O.2       6 UNK        -0.5032 
     45 CA        -76.3721   23.4085  -74.1004 C.3       5 UNK         0.0783 
     46 C46       -76.1307   24.7058  -73.2937 C.3       11 UNK        -0.0857 
     47 S47       -76.8841   24.6468  -71.6329 S.3       11 UNK        -0.2512 
     48 C48       -76.2173   26.1758  -70.9026 C.3       11 UNK         0.0225 
     49 N         -77.7983   23.2187  -74.3806 N.am      5 UNK        -0.4615 
     50 C         -78.3824   22.0421  -74.6336 C.2       4 UNK         0.5053 
     51 O         -77.7858   20.9655  -74.6441 O.2       4 UNK        -0.5105 
     52 CA        -79.8834   22.0843  -74.9551 C.3       4 UNK         0.0263 
     53 CB        -80.7149   22.1968  -73.6657 C.3       4 UNK        -0.1981 
     54 N         -80.2156   23.1910  -75.8562 N.am      4 UNK        -0.4224 
     55 C         -79.9583   23.2038  -77.1724 C.2       3 UNK         0.4895 
     56 O         -79.4302   22.2700  -77.7756 O.2       3 UNK        -0.5091 
     57 CA        -80.3490   24.4726  -77.9516 C.3       3 UNK         0.0250 
     58 CB        -81.7899   24.3604  -78.4748 C.3       3 UNK        -0.1996 
     59 N         -80.2124   25.6986  -77.1615 N.am      3 UNK        -0.4254 
     60 C         -79.0383   26.2377  -76.8065 C.2       2 UNK         0.5004 
     61 O         -77.9458   25.7802  -77.1353 O.2       2 UNK        -0.5226 
     62 CA        -79.0871   27.4646  -75.8839 C.3       2 UNK         0.0269 
     63 CB        -79.2161   28.7608  -76.6974 C.3       2 UNK        -0.1926 
     64 N         -80.1495   27.4023  -74.8744 N.am      2 UNK        -0.4687 
     65 C         -80.2221   26.4645  -73.9220 C.2       1 UNK         0.5165 
     66 O         -79.4718   25.4858  -73.8941 O.2       1 UNK        -0.5079 
     67 H67       -79.4422   25.0806  -69.6229 H         1 UNK         0.0900 
     68 H68       -80.6498   25.6961  -68.4904 H         1 UNK         0.0900 
     69 H69       -80.8009   24.0635  -69.1467 H         1 UNK         0.0900 
     70 H70       -79.6841   26.0355  -71.6355 H         1 UNK         0.2959 
     71 H71       -82.0433   25.8534  -73.0979 H         1 UNK         0.1079 
     72 H72       -82.6172   27.9728  -71.7456 H         1 UNK         0.0837 
     73 H73       -82.8268   27.9883  -73.4543 H         1 UNK         0.0837 
     74 H74       -80.3967   28.9354  -70.6064 H         1 UNK         0.0685 
     75 H75       -79.8569   30.5351  -71.0551 H         1 UNK         0.0685 
     76 H76       -78.5635   27.4405  -70.3631 H         1 UNK         0.1434 
     77 H77       -75.1396   27.6451  -72.9321 H         1 UNK         0.1329 
     78 H78       -78.3456   30.4466  -73.4157 H         1 UNK         0.1335 
     79 H79       -76.5922   29.9803  -75.2647 H         1 UNK         0.0680 
     80 H80       -75.1441   29.1007  -74.8264 H         1 UNK         0.0680 
     81 H81       -74.6092   32.5787  -75.8964 H         1 UNK         0.1032 
     82 H82       -74.1189   30.9222  -76.0670 H         1 UNK         0.1032 
     83 H83       -72.1439   32.2862  -75.9686 H         1 UNK         0.0461 
     84 H84       -72.0558   34.4487  -72.5658 H         1 UNK         0.3453 
     85 H85       -71.8622   32.7121  -72.5462 H         1 UNK         0.3453 
     86 H86       -72.5357   30.2420  -74.0338 H         1 UNK         0.2984 
     87 H87       -69.0237   29.6610  -73.5708 H         1 UNK         0.0554 
     88 H88       -70.0841   30.5219  -71.5159 H         1 UNK         0.0847 
     89 H89       -70.0507   28.7669  -71.4984 H         1 UNK         0.0847 
     90 H90       -71.5533   29.6192  -71.8415 H         1 UNK         0.0847 
     91 H91       -69.7491   27.9069  -74.6500 H         1 UNK         0.3141 
     92 H92       -70.9642   26.5052  -75.7984 H         1 UNK         0.0743 
     93 H93       -70.8988   25.3292  -73.5788 H         1 UNK         0.0784 
     94 H94       -71.7882   24.4026  -74.7746 H         1 UNK         0.0784 
     95 H95       -72.6556   25.3083  -73.5339 H         1 UNK         0.0784 
     96 H96       -73.7046   25.7955  -75.7412 H         1 UNK         0.3213 
     97 H97       -75.3593   27.8398  -77.1115 H         1 UNK         0.0855 
     98 H98       -73.9061   27.2177  -79.7334 H         1 UNK         0.0814 
     99 H99       -74.3519   28.8117  -79.1424 H         1 UNK         0.0814 
    100 H100      -75.6052   27.6704  -79.5950 H         1 UNK         0.0814 
    101 H101      -76.1693   25.7918  -77.2809 H         1 UNK         0.3105 
    102 H102      -76.3463   23.5191  -78.6122 H         1 UNK         0.0547 
    103 H103      -75.3728   21.2789  -78.0623 H         1 UNK         0.0837 
    104 H104      -73.8684   22.0507  -77.5614 H         1 UNK         0.0837 
    105 H105      -74.3931   22.1435  -79.2349 H         1 UNK         0.0837 
    106 H106      -77.1458   23.4380  -76.5542 H         1 UNK         0.3020 
    107 H107      -76.0252   22.5663  -73.4972 H         1 UNK         0.1245 
    108 H108      -76.5348   25.5623  -73.8364 H         1 UNK         0.0781 
    109 H109      -75.0633   24.8927  -73.1639 H         1 UNK         0.0781 
    110 H110      -75.1282   26.1736  -70.9717 H         1 UNK         0.0836 
    111 H111      -76.4551   26.1948  -69.8380 H         1 UNK         0.0836 
    112 H112      -78.3793   24.0528  -74.3186 H         1 UNK         0.3022 
    113 H113      -80.1479   21.1460  -75.4478 H         1 UNK         0.0747 
    114 H114      -81.7835   22.1825  -73.8801 H         1 UNK         0.0793 
    115 H115      -80.5082   21.3600  -72.9972 H         1 UNK         0.0793 
    116 H116      -80.4953   23.1121  -73.1148 H         1 UNK         0.0793 
    117 H117      -80.5936   24.0245  -75.4303 H         1 UNK         0.3047 
    118 H118      -79.6797   24.5477  -78.8118 H         1 UNK         0.0822 
    119 H119      -82.0540   25.2160  -79.0967 H         1 UNK         0.0807 
    120 H120      -82.5140   24.2992  -77.6613 H         1 UNK         0.0807 
    121 H121      -81.9131   23.4666  -79.0883 H         1 UNK         0.0807 
    122 H122      -81.0610   26.1459  -76.8462 H         1 UNK         0.2946 
    123 H123      -78.1356   27.4943  -75.3476 H         1 UNK         0.1144 
    124 H124      -79.1491   29.6388  -76.0545 H         1 UNK         0.0793 
    125 H125      -80.1640   28.8090  -77.2345 H         1 UNK         0.0793 
    126 H126      -78.4165   28.8394  -77.4356 H         1 UNK         0.0793 
    127 H127      -80.7654   28.2014  -74.8030 H         1 UNK         0.2896 
@<TRIPOS>BOND
     1    1    2 1    
     2    1   67 1    
     3    1   68 1    
     4    1   69 1    
     5    2    3 2    
     6    2    4 am   BACKBONE|DICT|INTERRES
     7    4    5 1    
     8    4   70 1    
     9    5    6 1    
    10    5   65 1    
    11    5   71 1    
    12    6    7 1    
    13    6   72 1    
    14    6   73 1    
    15    7    8 1    
    16    8    9 1    
    17    8   74 1    
    18    8   75 1    
    19    9   10 ar   
    20    9   14 ar   
    21   10   11 ar   
    22   10   76 1    
    23   11   12 ar   
    24   11   48 1    
    25   12   13 ar   
    26   12   77 1    
    27   13   14 ar   
    28   13   15 1    
    29   14   78 1    
    30   15   16 1    
    31   15   79 1    
    32   15   80 1    
    33   16   17 1    
    34   17   18 1    
    35   17   81 1    
    36   17   82 1    
    37   18   19 1    
    38   18   22 1    
    39   18   83 1    
    40   19   20 am   BACKBONE|DICT|INTERRES
    41   19   21 2    
    42   20   84 1    
    43   20   85 1    
    44   22   23 am   BACKBONE|DICT|INTERRES
    45   22   86 1    
    46   23   24 2    
    47   23   25 1    
    48   25   26 1    
    49   25   27 1    
    50   25   87 1    
    51   26   88 1    
    52   26   89 1    
    53   26   90 1    
    54   27   28 am   BACKBONE|DICT|INTERRES
    55   27   91 1    
    56   28   29 2    
    57   28   30 1    
    58   30   31 1    
    59   30   32 1    
    60   30   92 1    
    61   31   93 1    
    62   31   94 1    
    63   31   95 1    
    64   32   33 am   BACKBONE|DICT|INTERRES
    65   32   96 1    
    66   33   34 2    
    67   33   35 1    
    68   35   36 1    
    69   35   37 1    
    70   35   97 1    
    71   36   98 1    
    72   36   99 1    
    73   36  100 1    
    74   37   38 am   BACKBONE|DICT|INTERRES
    75   37  101 1    
    76   38   39 2    
    77   38   40 1    
    78   40   41 1    
    79   40   42 1    
    80   40  102 1    
    81   41  103 1    
    82   41  104 1    
    83   41  105 1    
    84   42   43 am   BACKBONE|DICT|INTERRES
    85   42  106 1    
    86   43   44 2    
    87   43   45 1    
    88   45   46 1    
    89   45   49 1    
    90   45  107 1    
    91   46   47 1    
    92   46  108 1    
    93   46  109 1    
    94   47   48 1    
    95   48  110 1    
    96   48  111 1    
    97   49   50 am   BACKBONE|DICT|INTERRES
    98   49  112 1    
    99   50   51 2    
   100   50   52 1    
   101   52   53 1    
   102   52   54 1    
   103   52  113 1    
   104   53  114 1    
   105   53  115 1    
   106   53  116 1    
   107   54   55 am   BACKBONE|DICT|INTERRES
   108   54  117 1    
   109   55   56 2    
   110   55   57 1    
   111   57   58 1    
   112   57   59 1    
   113   57  118 1    
   114   58  119 1    
   115   58  120 1    
   116   58  121 1    
   117   59   60 am   BACKBONE|DICT|INTERRES
   118   59  122 1    
   119   60   61 2    
   120   60   62 1    
   121   62   63 1    
   122   62   64 1    
   123   62  123 1    
   124   63  124 1    
   125   63  125 1    
   126   63  126 1    
   127   64   65 am   BACKBONE|DICT|INTERRES
   128   64  127 1    
   129   65   66 2    
@<TRIPOS>SUBSTRUCTURE
     1 UNK         1 GROUP             0       ****    0 ROOT    
