@<TRIPOS>MOLECULE
3R135
127   129    1
SMALL
USER_CHARGES


@<TRIPOS>ATOM
      1 CA        -84.2205   26.1017  -74.2948 C.3       0 UNK        -0.1998 
      2 C         -82.7385   26.0836  -73.9558 C.2       0 UNK         0.4909 
      3 O         -82.0877   25.0541  -74.1345 O.2       0 UNK        -0.5240 
      4 N         -82.1996   27.2191  -73.4870 N.am      1 UNK        -0.4739 
      5 CA        -80.8037   27.4192  -73.0673 C.3       1 UNK         0.0864 
      6 C6        -80.4930   26.7705  -71.6910 C.3       11 UNK        -0.0881 
      7 S7        -81.0621   27.7889  -70.2810 S.3       11 UNK        -0.2682 
      8 C8        -80.0006   29.2896  -70.2882 C.3       11 UNK         0.0289 
      9 C9        -78.6571   29.1094  -70.9861 C.ar      11 UNK        -0.0687 
     10 C10       -77.7099   28.2227  -70.4688 C.ar      11 UNK        -0.0823 
     11 C11       -76.5349   27.9575  -71.1742 C.ar      11 UNK        -0.0830 
     12 C12       -76.2808   28.6304  -72.3718 C.ar      11 UNK        -0.1021 
     13 C13       -77.2010   29.5513  -72.8863 C.ar      11 UNK        -0.0753 
     14 C14       -78.3838   29.7888  -72.1789 C.ar      11 UNK        -0.0933 
     15 C15       -77.0011   30.2452  -74.2347 C.3       11 UNK         0.0166 
     16 S16       -75.2825   30.3028  -74.8493 S.3       11 UNK        -0.2615 
     17 C17       -74.5586   31.5981  -73.7813 C.3       11 UNK        -0.0865 
     18 CA        -73.1270   31.2756  -73.2737 C.3       10 UNK         0.0862 
     19 C         -73.1176   30.3015  -72.0575 C.2       10 UNK         0.5551 
     20 N         -72.4482   29.1556  -72.1133 N.am      10 UNK        -0.7319 
     21 O         -73.7092   30.6099  -71.0265 O.2       10 UNK        -0.5018 
     22 N         -72.2360   30.9001  -74.3810 N.am      10 UNK        -0.4509 
     23 C         -70.9047   31.0251  -74.3746 C.2       10 UNK         0.4899 
     24 O         -70.2729   31.5649  -73.4646 O.2       10 UNK        -0.4839 
     25 CA        -70.1631   30.4404  -75.5939 C.3       9 UNK         0.0222 
     26 CB        -68.6459   30.2949  -75.3503 C.3       9 UNK        -0.1966 
     27 N         -70.7226   29.1683  -76.0751 N.am      9 UNK        -0.4218 
     28 C         -70.8914   28.0329  -75.3827 C.2       9 UNK         0.5020 
     29 O         -70.7038   27.9322  -74.1687 O.2       9 UNK        -0.5274 
     30 CA        -71.3561   26.8081  -76.1939 C.3       8 UNK         0.0270 
     31 CB        -71.0655   25.4847  -75.4629 C.3       8 UNK        -0.1976 
     32 N         -72.7796   26.8623  -76.5351 N.am      8 UNK        -0.4313 
     33 C         -73.3312   27.6939  -77.4323 C.2       8 UNK         0.5041 
     34 O         -72.6825   28.5410  -78.0517 O.2       8 UNK        -0.5577 
     35 CA        -74.8490   27.5579  -77.6851 C.3       7 UNK         0.0284 
     36 CB        -75.2814   28.1272  -79.0520 C.3       7 UNK        -0.1958 
     37 N         -75.3550   26.1916  -77.5132 N.am      7 UNK        -0.4454 
     38 C         -74.9732   25.0766  -78.1547 C.2       7 UNK         0.5089 
     39 O         -74.1494   25.0562  -79.0708 O.2       7 UNK        -0.5125 
     40 CA        -75.6076   23.7560  -77.6593 C.3       6 UNK         0.0408 
     41 CB        -74.6943   22.5382  -77.9117 C.3       6 UNK        -0.1791 
     42 N         -76.0367   23.7877  -76.2500 N.am      6 UNK        -0.4762 
     43 C         -75.2701   24.0480  -75.1772 C.2       6 UNK         0.5007 
     44 O         -74.0761   24.3354  -75.2624 O.2       6 UNK        -0.5032 
     45 CA        -75.9305   24.0304  -73.7828 C.3       5 UNK         0.0783 
     46 C46       -75.6544   25.3531  -73.0279 C.3       11 UNK        -0.0857 
     47 S47       -76.0744   25.2407  -71.2566 S.3       11 UNK        -0.2512 
     48 C48       -75.5719   26.8934  -70.6756 C.3       11 UNK         0.0225 
     49 N         -77.3687   23.7420  -73.8535 N.am      5 UNK        -0.4615 
     50 C         -77.8969   22.5152  -73.7702 C.2       4 UNK         0.5053 
     51 O         -77.2294   21.4875  -73.6504 O.2       4 UNK        -0.5105 
     52 CA        -79.4288   22.4147  -73.8403 C.3       4 UNK         0.0263 
     53 CB        -80.0549   22.8346  -72.5015 C.3       4 UNK        -0.1981 
     54 N         -80.0140   23.2063  -74.9254 N.am      4 UNK        -0.4224 
     55 C         -79.8355   22.9625  -76.2325 C.2       3 UNK         0.4895 
     56 O         -79.1232   22.0602  -76.6726 O.2       3 UNK        -0.5091 
     57 CA        -80.5616   23.8919  -77.2173 C.3       3 UNK         0.0250 
     58 CB        -82.0607   23.5586  -77.2989 C.3       3 UNK        -0.1996 
     59 N         -80.3771   25.2962  -76.8525 N.am      3 UNK        -0.4254 
     60 C         -79.2643   25.9925  -77.1232 C.2       2 UNK         0.5004 
     61 O         -78.3364   25.5530  -77.7980 O.2       2 UNK        -0.5226 
     62 CA        -79.1410   27.4095  -76.5369 C.3       2 UNK         0.0269 
     63 CB        -79.4660   28.4683  -77.6019 C.3       2 UNK        -0.1926 
     64 N         -79.9725   27.6398  -75.3530 N.am      2 UNK        -0.4687 
     65 C         -79.7980   27.0270  -74.1735 C.2       1 UNK         0.5165 
     66 O         -78.9323   26.1707  -73.9770 O.2       1 UNK        -0.5079 
     67 H67       -84.3668   25.8599  -75.3472 H         1 UNK         0.0900 
     68 H68       -84.7482   25.3583  -73.6981 H         1 UNK         0.0900 
     69 H69       -84.6723   27.0746  -74.1028 H         1 UNK         0.0900 
     70 H70       -82.7973   28.0265  -73.3740 H         1 UNK         0.2959 
     71 H71       -80.6853   28.4970  -72.9652 H         1 UNK         0.1079 
     72 H72       -79.4319   26.5627  -71.5566 H         1 UNK         0.0837 
     73 H73       -80.9756   25.7956  -71.6171 H         1 UNK         0.0837 
     74 H74       -79.8281   29.6008  -69.2571 H         1 UNK         0.0685 
     75 H75       -80.5623   30.1003  -70.7547 H         1 UNK         0.0685 
     76 H76       -77.9233   27.6842  -69.5554 H         1 UNK         0.1434 
     77 H77       -75.3760   28.4002  -72.9149 H         1 UNK         0.1329 
     78 H78       -79.1144   30.4764  -72.5827 H         1 UNK         0.1335 
     79 H79       -77.6054   29.7204  -74.9752 H         1 UNK         0.0680 
     80 H80       -77.3883   31.2645  -74.1904 H         1 UNK         0.0680 
     81 H81       -75.2254   31.8083  -72.9425 H         1 UNK         0.1032 
     82 H82       -74.5316   32.5204  -74.3634 H         1 UNK         0.1032 
     83 H83       -72.7391   32.2123  -72.8683 H         1 UNK         0.0461 
     84 H84       -72.4366   28.5592  -71.3028 H         1 UNK         0.3453 
     85 H85       -71.9081   28.8954  -72.9319 H         1 UNK         0.3453 
     86 H86       -72.6797   30.4293  -75.1562 H         1 UNK         0.2984 
     87 H87       -70.3000   31.1587  -76.4034 H         1 UNK         0.0554 
     88 H88       -68.1361   29.9126  -76.2346 H         1 UNK         0.0847 
     89 H89       -68.4342   29.6176  -74.5220 H         1 UNK         0.0847 
     90 H90       -68.1920   31.2568  -75.1086 H         1 UNK         0.0847 
     91 H91       -71.0486   29.1570  -77.0384 H         1 UNK         0.3141 
     92 H92       -70.7848   26.7966  -77.1246 H         1 UNK         0.0743 
     93 H93       -70.0066   25.3987  -75.2155 H         1 UNK         0.0784 
     94 H94       -71.3252   24.6248  -76.0809 H         1 UNK         0.0784 
     95 H95       -71.6260   25.4063  -74.5303 H         1 UNK         0.0784 
     96 H96       -73.3688   26.1688  -76.0866 H         1 UNK         0.3213 
     97 H97       -75.3350   28.1565  -76.9145 H         1 UNK         0.0855 
     98 H98       -74.7812   27.6186  -79.8767 H         1 UNK         0.0814 
     99 H99       -75.0395   29.1880  -79.1287 H         1 UNK         0.0814 
    100 H100      -76.3567   28.0294  -79.1999 H         1 UNK         0.0814 
    101 H101      -76.0725   26.0690  -76.8131 H         1 UNK         0.3105 
    102 H102      -76.5135   23.6134  -78.2497 H         1 UNK         0.0547 
    103 H103      -75.1615   21.6146  -77.5703 H         1 UNK         0.0837 
    104 H104      -73.7360   22.6393  -77.4012 H         1 UNK         0.0837 
    105 H105      -74.4845   22.4183  -78.9752 H         1 UNK         0.0837 
    106 H106      -77.0127   23.5771  -76.0880 H         1 UNK         0.3020 
    107 H107      -75.4291   23.2293  -73.2346 H         1 UNK         0.1245 
    108 H108      -76.2225   26.1637  -73.4851 H         1 UNK         0.0781 
    109 H109      -74.6016   25.6361  -73.0908 H         1 UNK         0.0781 
    110 H110      -74.5539   27.1095  -71.0032 H         1 UNK         0.0836 
    111 H111      -75.5491   26.8961  -69.5849 H         1 UNK         0.0836 
    112 H112      -77.9871   24.5489  -73.9197 H         1 UNK         0.3022 
    113 H113      -79.6858   21.3688  -74.0207 H         1 UNK         0.0747 
    114 H114      -81.1406   22.7373  -72.5204 H         1 UNK         0.0793 
    115 H115      -79.6849   22.2131  -71.6850 H         1 UNK         0.0793 
    116 H116      -79.8150   23.8694  -72.2575 H         1 UNK         0.0793 
    117 H117      -80.6415   23.9595  -74.6494 H         1 UNK         0.3047 
    118 H118      -80.1329   23.7274  -78.2088 H         1 UNK         0.0822 
    119 H119      -82.5670   24.1899  -78.0292 H         1 UNK         0.0807 
    120 H120      -82.5644   23.6856  -76.3408 H         1 UNK         0.0807 
    121 H121      -82.2104   22.5232  -77.6080 H         1 UNK         0.0807 
    122 H122      -81.0753   25.7117  -76.2523 H         1 UNK         0.2946 
    123 H123      -78.0982   27.5367  -76.2380 H         1 UNK         0.1144 
    124 H124      -79.2807   29.4762  -77.2299 H         1 UNK         0.0793 
    125 H125      -80.5070   28.4124  -77.9226 H         1 UNK         0.0793 
    126 H126      -78.8445   28.3338  -78.4884 H         1 UNK         0.0793 
    127 H127      -80.7279   28.3037  -75.4484 H         1 UNK         0.2896 
@<TRIPOS>BOND
     1    1    2 1    
     2    1   67 1    
     3    1   68 1    
     4    1   69 1    
     5    2    3 2    
     6    2    4 am   BACKBONE|DICT|INTERRES
     7    4    5 1    
     8    4   70 1    
     9    5    6 1    
    10    5   65 1    
    11    5   71 1    
    12    6    7 1    
    13    6   72 1    
    14    6   73 1    
    15    7    8 1    
    16    8    9 1    
    17    8   74 1    
    18    8   75 1    
    19    9   10 ar   
    20    9   14 ar   
    21   10   11 ar   
    22   10   76 1    
    23   11   12 ar   
    24   11   48 1    
    25   12   13 ar   
    26   12   77 1    
    27   13   14 ar   
    28   13   15 1    
    29   14   78 1    
    30   15   16 1    
    31   15   79 1    
    32   15   80 1    
    33   16   17 1    
    34   17   18 1    
    35   17   81 1    
    36   17   82 1    
    37   18   19 1    
    38   18   22 1    
    39   18   83 1    
    40   19   20 am   BACKBONE|DICT|INTERRES
    41   19   21 2    
    42   20   84 1    
    43   20   85 1    
    44   22   23 am   BACKBONE|DICT|INTERRES
    45   22   86 1    
    46   23   24 2    
    47   23   25 1    
    48   25   26 1    
    49   25   27 1    
    50   25   87 1    
    51   26   88 1    
    52   26   89 1    
    53   26   90 1    
    54   27   28 am   BACKBONE|DICT|INTERRES
    55   27   91 1    
    56   28   29 2    
    57   28   30 1    
    58   30   31 1    
    59   30   32 1    
    60   30   92 1    
    61   31   93 1    
    62   31   94 1    
    63   31   95 1    
    64   32   33 am   BACKBONE|DICT|INTERRES
    65   32   96 1    
    66   33   34 2    
    67   33   35 1    
    68   35   36 1    
    69   35   37 1    
    70   35   97 1    
    71   36   98 1    
    72   36   99 1    
    73   36  100 1    
    74   37   38 am   BACKBONE|DICT|INTERRES
    75   37  101 1    
    76   38   39 2    
    77   38   40 1    
    78   40   41 1    
    79   40   42 1    
    80   40  102 1    
    81   41  103 1    
    82   41  104 1    
    83   41  105 1    
    84   42   43 am   BACKBONE|DICT|INTERRES
    85   42  106 1    
    86   43   44 2    
    87   43   45 1    
    88   45   46 1    
    89   45   49 1    
    90   45  107 1    
    91   46   47 1    
    92   46  108 1    
    93   46  109 1    
    94   47   48 1    
    95   48  110 1    
    96   48  111 1    
    97   49   50 am   BACKBONE|DICT|INTERRES
    98   49  112 1    
    99   50   51 2    
   100   50   52 1    
   101   52   53 1    
   102   52   54 1    
   103   52  113 1    
   104   53  114 1    
   105   53  115 1    
   106   53  116 1    
   107   54   55 am   BACKBONE|DICT|INTERRES
   108   54  117 1    
   109   55   56 2    
   110   55   57 1    
   111   57   58 1    
   112   57   59 1    
   113   57  118 1    
   114   58  119 1    
   115   58  120 1    
   116   58  121 1    
   117   59   60 am   BACKBONE|DICT|INTERRES
   118   59  122 1    
   119   60   61 2    
   120   60   62 1    
   121   62   63 1    
   122   62   64 1    
   123   62  123 1    
   124   63  124 1    
   125   63  125 1    
   126   63  126 1    
   127   64   65 am   BACKBONE|DICT|INTERRES
   128   64  127 1    
   129   65   66 2    
@<TRIPOS>SUBSTRUCTURE
     1 UNK         1 GROUP             0       ****    0 ROOT    
