@<TRIPOS>MOLECULE
3R135
127   129    1
SMALL
USER_CHARGES


@<TRIPOS>ATOM
      1 CA        -82.4066   27.7689  -70.3195 C.3       0 UNK        -0.1998 
      2 C         -82.9385   27.8291  -71.7435 C.2       0 UNK         0.4909 
      3 O         -84.1199   27.5668  -71.9699 O.2       0 UNK        -0.5240 
      4 N         -82.0726   28.1701  -72.7064 N.am      1 UNK        -0.4739 
      5 CA        -82.3915   28.2536  -74.1383 C.3       1 UNK         0.0864 
      6 C6        -81.4080   29.1936  -74.8862 C.3       11 UNK        -0.0881 
      7 S7        -79.6636   28.6586  -74.7992 S.3       11 UNK        -0.2682 
      8 C8        -78.9708   29.7907  -73.5573 C.3       11 UNK         0.0289 
      9 C9        -77.7713   29.1543  -72.8744 C.ar      11 UNK        -0.0687 
     10 C10       -77.9721   28.1151  -71.9618 C.ar      11 UNK        -0.0823 
     11 C11       -76.8877   27.5024  -71.3314 C.ar      11 UNK        -0.0830 
     12 C12       -75.5928   27.9519  -71.6015 C.ar      11 UNK        -0.1021 
     13 C13       -75.3774   28.9912  -72.5113 C.ar      11 UNK        -0.0753 
     14 C14       -76.4700   29.5876  -73.1504 C.ar      11 UNK        -0.0933 
     15 C15       -73.9594   29.4488  -72.8094 C.3       11 UNK         0.0166 
     16 S16       -73.4697   30.8412  -71.7457 S.3       11 UNK        -0.2615 
     17 C17       -73.5403   32.2433  -72.9158 C.3       11 UNK        -0.0865 
     18 CA        -72.1652   32.7563  -73.4450 C.3       10 UNK         0.0862 
     19 C         -71.2320   33.3537  -72.3449 C.2       10 UNK         0.5551 
     20 N         -69.9144   33.2565  -72.4685 N.am      10 UNK        -0.7319 
     21 O         -71.7067   33.9656  -71.3907 O.2       10 UNK        -0.5018 
     22 N         -71.5432   31.8676  -74.4496 N.am      10 UNK        -0.4509 
     23 C         -70.8586   30.7327  -74.2497 C.2       10 UNK         0.4899 
     24 O         -70.5951   30.2487  -73.1482 O.2       10 UNK        -0.4839 
     25 CA        -70.3192   30.0438  -75.5138 C.3       9 UNK         0.0222 
     26 CB        -68.8409   30.4049  -75.7351 C.3       9 UNK        -0.1966 
     27 N         -70.4530   28.5892  -75.4144 N.am      9 UNK        -0.4218 
     28 C         -71.6089   27.9318  -75.5666 C.2       9 UNK         0.5020 
     29 O         -72.6705   28.4801  -75.8703 O.2       9 UNK        -0.5274 
     30 CA        -71.5714   26.4161  -75.3108 C.3       8 UNK         0.0270 
     31 CB        -71.7572   26.1122  -73.8148 C.3       8 UNK        -0.1976 
     32 N         -72.6220   25.7389  -76.0723 N.am      8 UNK        -0.4313 
     33 C         -72.5135   25.3986  -77.3652 C.2       8 UNK         0.5041 
     34 O         -71.4713   25.5162  -78.0126 O.2       8 UNK        -0.5577 
     35 CA        -73.7600   24.8252  -78.0691 C.3       7 UNK         0.0284 
     36 CB        -73.6924   23.2903  -78.1209 C.3       7 UNK        -0.1958 
     37 N         -75.0202   25.2209  -77.4421 N.am      7 UNK        -0.4454 
     38 C         -75.5138   26.4660  -77.4080 C.2       7 UNK         0.5089 
     39 O         -75.0256   27.4105  -78.0284 O.2       7 UNK        -0.5125 
     40 CA        -76.7733   26.6986  -76.5496 C.3       6 UNK         0.0408 
     41 CB        -77.9933   26.8276  -77.4768 C.3       6 UNK        -0.1791 
     42 N         -77.0412   25.6560  -75.5482 N.am      6 UNK        -0.4762 
     43 C         -76.2185   25.2582  -74.5631 C.2       6 UNK         0.5007 
     44 O         -75.0932   25.7236  -74.3859 O.2       6 UNK        -0.5032 
     45 CA        -76.6890   24.0671  -73.7050 C.3       5 UNK         0.0783 
     46 C46       -77.5415   24.4973  -72.4826 C.3       11 UNK        -0.0857 
     47 S47       -76.5026   24.7689  -71.0057 S.3       11 UNK        -0.2512 
     48 C48       -77.1186   26.3557  -70.3594 C.3       11 UNK         0.0225 
     49 N         -77.3912   23.0867  -74.5370 N.am      5 UNK        -0.4615 
     50 C         -76.7884   22.1001  -75.2142 C.2       4 UNK         0.5053 
     51 O         -75.5766   21.8884  -75.1790 O.2       4 UNK        -0.5105 
     52 CA        -77.6802   21.1928  -76.0803 C.3       4 UNK         0.0263 
     53 CB        -78.1429   19.9690  -75.2735 C.3       4 UNK        -0.1981 
     54 N         -78.8506   21.8840  -76.6247 N.am      4 UNK        -0.4224 
     55 C         -78.7978   22.8334  -77.5691 C.2       3 UNK         0.4895 
     56 O         -77.7588   23.1921  -78.1237 O.2       3 UNK        -0.5091 
     57 CA        -80.1263   23.5190  -77.9382 C.3       3 UNK         0.0250 
     58 CB        -80.8100   22.7703  -79.0935 C.3       3 UNK        -0.1996 
     59 N         -81.0759   23.6715  -76.8265 N.am      3 UNK        -0.4254 
     60 C         -80.8235   24.3041  -75.6719 C.2       2 UNK         0.5004 
     61 O         -79.7139   24.7330  -75.3497 O.2       2 UNK        -0.5226 
     62 CA        -81.9878   24.4418  -74.6824 C.3       2 UNK         0.0269 
     63 CB        -81.8177   23.4533  -73.5172 C.3       2 UNK        -0.1926 
     64 N         -82.0403   25.8038  -74.1515 N.am      2 UNK        -0.4687 
     65 C         -82.5088   26.8684  -74.8201 C.2       1 UNK         0.5165 
     66 O         -83.0290   26.7892  -75.9346 O.2       1 UNK        -0.5079 
     67 H67       -81.3548   28.0487  -70.2631 H         1 UNK         0.0900 
     68 H68       -82.5114   26.7596  -69.9224 H         1 UNK         0.0900 
     69 H69       -82.9713   28.4468  -69.6799 H         1 UNK         0.0900 
     70 H70       -81.1137   28.3740  -72.4697 H         1 UNK         0.2959 
     71 H71       -83.3837   28.7030  -74.2246 H         1 UNK         0.1079 
     72 H72       -81.6863   29.2711  -75.9391 H         1 UNK         0.0837 
     73 H73       -81.4952   30.2074  -74.4925 H         1 UNK         0.0837 
     74 H74       -78.6966   30.7301  -74.0396 H         1 UNK         0.0685 
     75 H75       -79.7221   30.0350  -72.8052 H         1 UNK         0.0685 
     76 H76       -78.9755   27.7711  -71.7564 H         1 UNK         0.1434 
     77 H77       -74.7507   27.4799  -71.1140 H         1 UNK         0.1329 
     78 H78       -76.3059   30.3865  -73.8601 H         1 UNK         0.1335 
     79 H79       -73.2586   28.6301  -72.6446 H         1 UNK         0.0680 
     80 H80       -73.8638   29.7135  -73.8624 H         1 UNK         0.0680 
     81 H81       -74.0592   33.0582  -72.4080 H         1 UNK         0.1032 
     82 H82       -74.1859   31.9890  -73.7571 H         1 UNK         0.1032 
     83 H83       -72.4106   33.6391  -74.0366 H         1 UNK         0.0461 
     84 H84       -69.5133   32.7484  -73.2397 H         1 UNK         0.3453 
     85 H85       -69.3196   33.6613  -71.7629 H         1 UNK         0.3453 
     86 H86       -71.6532   32.1795  -75.4040 H         1 UNK         0.2984 
     87 H87       -70.8886   30.3864  -76.3808 H         1 UNK         0.0554 
     88 H88       -68.4495   29.9404  -76.6404 H         1 UNK         0.0847 
     89 H89       -68.2165   30.0885  -74.8982 H         1 UNK         0.0847 
     90 H90       -68.7142   31.4826  -75.8460 H         1 UNK         0.0847 
     91 H91       -69.6350   28.0786  -75.1143 H         1 UNK         0.3141 
     92 H92       -70.5980   26.0307  -75.6223 H         1 UNK         0.0743 
     93 H93       -72.7212   26.4651  -73.4480 H         1 UNK         0.0784 
     94 H94       -71.6990   25.0416  -73.6182 H         1 UNK         0.0784 
     95 H95       -70.9846   26.5956  -73.2154 H         1 UNK         0.0784 
     96 H96       -73.5317   25.6843  -75.6218 H         1 UNK         0.3213 
     97 H97       -73.7620   25.2052  -79.0929 H         1 UNK         0.0855 
     98 H98       -73.6921   22.8529  -77.1214 H         1 UNK         0.0814 
     99 H99       -72.7836   22.9564  -78.6236 H         1 UNK         0.0814 
    100 H100      -74.5380   22.8732  -78.6687 H         1 UNK         0.0814 
    101 H101      -75.5273   24.5055  -76.9408 H         1 UNK         0.3105 
    102 H102      -76.6430   27.6371  -76.0069 H         1 UNK         0.0547 
    103 H103      -77.9230   27.7304  -78.0844 H         1 UNK         0.0837 
    104 H104      -78.0628   25.9827  -78.1614 H         1 UNK         0.0837 
    105 H105      -78.9285   26.8814  -76.9218 H         1 UNK         0.0837 
    106 H106      -77.9714   25.2420  -75.5804 H         1 UNK         0.3020 
    107 H107      -75.7829   23.5846  -73.3295 H         1 UNK         0.1245 
    108 H108      -78.2459   23.7077  -72.2161 H         1 UNK         0.0781 
    109 H109      -78.1575   25.3701  -72.7059 H         1 UNK         0.0781 
    110 H110      -76.6086   26.5757  -69.4204 H         1 UNK         0.0836 
    111 H111      -78.1771   26.2543  -70.1144 H         1 UNK         0.0836 
    112 H112      -78.3786   23.2549  -74.6847 H         1 UNK         0.3022 
    113 H113      -77.0747   20.8405  -76.9184 H         1 UNK         0.0747 
    114 H114      -78.7111   19.2757  -75.8941 H         1 UNK         0.0793 
    115 H115      -77.2887   19.4190  -74.8758 H         1 UNK         0.0793 
    116 H116      -78.7689   20.2546  -74.4271 H         1 UNK         0.0793 
    117 H117      -79.7500   21.6473  -76.2320 H         1 UNK         0.3047 
    118 H118      -79.8844   24.5237  -78.2878 H         1 UNK         0.0822 
    119 H119      -81.6901   23.3063  -79.4495 H         1 UNK         0.0807 
    120 H120      -81.1226   21.7680  -78.7978 H         1 UNK         0.0807 
    121 H121      -80.1344   22.6633  -79.9436 H         1 UNK         0.0807 
    122 H122      -82.0123   23.3322  -76.9949 H         1 UNK         0.2946 
    123 H123      -82.9289   24.2262  -75.1936 H         1 UNK         0.1144 
    124 H124      -82.6437   23.5297  -72.8098 H         1 UNK         0.0793 
    125 H125      -80.8906   23.6278  -72.9693 H         1 UNK         0.0793 
    126 H126      -81.7952   22.4238  -73.8772 H         1 UNK         0.0793 
    127 H127      -81.5933   25.9641  -73.2617 H         1 UNK         0.2896 
@<TRIPOS>BOND
     1    1    2 1    
     2    1   67 1    
     3    1   68 1    
     4    1   69 1    
     5    2    3 2    
     6    2    4 am   BACKBONE|DICT|INTERRES
     7    4    5 1    
     8    4   70 1    
     9    5    6 1    
    10    5   65 1    
    11    5   71 1    
    12    6    7 1    
    13    6   72 1    
    14    6   73 1    
    15    7    8 1    
    16    8    9 1    
    17    8   74 1    
    18    8   75 1    
    19    9   10 ar   
    20    9   14 ar   
    21   10   11 ar   
    22   10   76 1    
    23   11   12 ar   
    24   11   48 1    
    25   12   13 ar   
    26   12   77 1    
    27   13   14 ar   
    28   13   15 1    
    29   14   78 1    
    30   15   16 1    
    31   15   79 1    
    32   15   80 1    
    33   16   17 1    
    34   17   18 1    
    35   17   81 1    
    36   17   82 1    
    37   18   19 1    
    38   18   22 1    
    39   18   83 1    
    40   19   20 am   BACKBONE|DICT|INTERRES
    41   19   21 2    
    42   20   84 1    
    43   20   85 1    
    44   22   23 am   BACKBONE|DICT|INTERRES
    45   22   86 1    
    46   23   24 2    
    47   23   25 1    
    48   25   26 1    
    49   25   27 1    
    50   25   87 1    
    51   26   88 1    
    52   26   89 1    
    53   26   90 1    
    54   27   28 am   BACKBONE|DICT|INTERRES
    55   27   91 1    
    56   28   29 2    
    57   28   30 1    
    58   30   31 1    
    59   30   32 1    
    60   30   92 1    
    61   31   93 1    
    62   31   94 1    
    63   31   95 1    
    64   32   33 am   BACKBONE|DICT|INTERRES
    65   32   96 1    
    66   33   34 2    
    67   33   35 1    
    68   35   36 1    
    69   35   37 1    
    70   35   97 1    
    71   36   98 1    
    72   36   99 1    
    73   36  100 1    
    74   37   38 am   BACKBONE|DICT|INTERRES
    75   37  101 1    
    76   38   39 2    
    77   38   40 1    
    78   40   41 1    
    79   40   42 1    
    80   40  102 1    
    81   41  103 1    
    82   41  104 1    
    83   41  105 1    
    84   42   43 am   BACKBONE|DICT|INTERRES
    85   42  106 1    
    86   43   44 2    
    87   43   45 1    
    88   45   46 1    
    89   45   49 1    
    90   45  107 1    
    91   46   47 1    
    92   46  108 1    
    93   46  109 1    
    94   47   48 1    
    95   48  110 1    
    96   48  111 1    
    97   49   50 am   BACKBONE|DICT|INTERRES
    98   49  112 1    
    99   50   51 2    
   100   50   52 1    
   101   52   53 1    
   102   52   54 1    
   103   52  113 1    
   104   53  114 1    
   105   53  115 1    
   106   53  116 1    
   107   54   55 am   BACKBONE|DICT|INTERRES
   108   54  117 1    
   109   55   56 2    
   110   55   57 1    
   111   57   58 1    
   112   57   59 1    
   113   57  118 1    
   114   58  119 1    
   115   58  120 1    
   116   58  121 1    
   117   59   60 am   BACKBONE|DICT|INTERRES
   118   59  122 1    
   119   60   61 2    
   120   60   62 1    
   121   62   63 1    
   122   62   64 1    
   123   62  123 1    
   124   63  124 1    
   125   63  125 1    
   126   63  126 1    
   127   64   65 am   BACKBONE|DICT|INTERRES
   128   64  127 1    
   129   65   66 2    
@<TRIPOS>SUBSTRUCTURE
     1 UNK         1 GROUP             0       ****    0 ROOT    
