@<TRIPOS>MOLECULE
3R135
127   129    1
SMALL
USER_CHARGES


@<TRIPOS>ATOM
      1 CA        -82.6282   30.6184  -77.4396 C.3       0 UNK        -0.1998 
      2 C         -81.4860   29.7265  -76.9761 C.2       0 UNK         0.4909 
      3 O         -80.6560   29.3244  -77.7921 O.2       0 UNK        -0.5240 
      4 N         -81.4356   29.4257  -75.6729 N.am      1 UNK        -0.4739 
      5 CA        -80.4571   28.5284  -75.0520 C.3       1 UNK         0.0864 
      6 C6        -80.0087   29.0636  -73.6634 C.3       11 UNK        -0.0881 
      7 S7        -81.3057   29.0101  -72.3730 S.3       11 UNK        -0.2682 
      8 C8        -80.4825   29.8302  -70.9634 C.3       11 UNK         0.0289 
      9 C9        -79.1049   29.2595  -70.6364 C.ar      11 UNK        -0.0687 
     10 C10       -78.9000   27.8784  -70.5351 C.ar      11 UNK        -0.0823 
     11 C11       -77.6226   27.3640  -70.2915 C.ar      11 UNK        -0.0830 
     12 C12       -76.5528   28.2439  -70.1006 C.ar      11 UNK        -0.1021 
     13 C13       -76.7451   29.6244  -70.1917 C.ar      11 UNK        -0.0753 
     14 C14       -78.0231   30.1263  -70.4527 C.ar      11 UNK        -0.0933 
     15 C15       -75.5631   30.5696  -70.0561 C.3       11 UNK         0.0166 
     16 S16       -75.0518   31.1715  -71.6936 S.3       11 UNK        -0.2615 
     17 C17       -73.3312   31.7037  -71.3797 C.3       11 UNK        -0.0865 
     18 CA        -72.2697   30.7128  -71.9345 C.3       10 UNK         0.0862 
     19 C         -72.0767   29.4716  -71.0108 C.2       10 UNK         0.5551 
     20 N         -72.1946   28.2399  -71.4920 N.am      10 UNK        -0.7319 
     21 O         -71.7997   29.6337  -69.8249 O.2       10 UNK        -0.5018 
     22 N         -72.5284   30.4055  -73.3481 N.am      10 UNK        -0.4509 
     23 C         -71.6292   29.9807  -74.2385 C.2       10 UNK         0.4899 
     24 O         -70.4198   29.8834  -74.0206 O.2       10 UNK        -0.4839 
     25 CA        -72.1959   29.6015  -75.6171 C.3       9 UNK         0.0222 
     26 CB        -71.7243   30.5940  -76.6921 C.3       9 UNK        -0.1966 
     27 N         -71.8516   28.2395  -76.0309 N.am      9 UNK        -0.4218 
     28 C         -72.0299   27.1188  -75.3181 C.2       9 UNK         0.5020 
     29 O         -72.4796   27.0859  -74.1703 O.2       9 UNK        -0.5274 
     30 CA        -71.6906   25.8080  -76.0473 C.3       8 UNK         0.0270 
     31 CB        -71.6205   24.6015  -75.0919 C.3       8 UNK        -0.1976 
     32 N         -72.6872   25.5352  -77.0823 N.am      8 UNK        -0.4313 
     33 C         -72.7322   26.1067  -78.2929 C.2       8 UNK         0.5041 
     34 O         -71.8927   26.9140  -78.6958 O.2       8 UNK        -0.5577 
     35 CA        -73.9264   25.7402  -79.1852 C.3       7 UNK         0.0284 
     36 CB        -73.8238   24.2857  -79.6754 C.3       7 UNK        -0.1958 
     37 N         -75.1817   25.9273  -78.4562 N.am      7 UNK        -0.4454 
     38 C         -75.9744   27.0039  -78.5596 C.2       7 UNK         0.5089 
     39 O         -75.7808   27.9245  -79.3543 O.2       7 UNK        -0.5125 
     40 CA        -77.1923   27.0767  -77.6146 C.3       6 UNK         0.0408 
     41 CB        -78.4461   26.5306  -78.3150 C.3       6 UNK        -0.1791 
     42 N         -76.9934   26.3622  -76.3499 N.am      6 UNK        -0.4762 
     43 C         -76.0820   26.7001  -75.4249 C.2       6 UNK         0.5007 
     44 O         -75.4104   27.7284  -75.4915 O.2       6 UNK        -0.5032 
     45 CA        -75.8587   25.7319  -74.2428 C.3       5 UNK         0.0783 
     46 C46       -76.5804   26.2552  -72.9801 C.3       11 UNK        -0.0857 
     47 S47       -76.1338   25.3112  -71.4827 S.3       11 UNK        -0.2512 
     48 C48       -77.3944   25.8569  -70.2763 C.3       11 UNK         0.0225 
     49 N         -76.2133   24.3353  -74.5340 N.am      5 UNK        -0.4615 
     50 C         -75.6501   23.5536  -75.4665 C.2       4 UNK         0.5053 
     51 O         -74.7960   23.9392  -76.2626 O.2       4 UNK        -0.5105 
     52 CA        -76.1926   22.1259  -75.5706 C.3       4 UNK         0.0263 
     53 CB        -75.8823   21.3112  -74.2989 C.3       4 UNK        -0.1981 
     54 N         -77.6244   22.2345  -75.8156 N.am      4 UNK        -0.4224 
     55 C         -78.5111   21.2828  -76.1073 C.2       3 UNK         0.4895 
     56 O         -78.2345   20.0843  -76.1796 O.2       3 UNK        -0.5091 
     57 CA        -79.9554   21.7755  -76.3716 C.3       3 UNK         0.0250 
     58 CB        -80.9603   20.6139  -76.4904 C.3       3 UNK        -0.1996 
     59 N         -80.4600   22.7379  -75.3772 N.am      3 UNK        -0.4254 
     60 C         -80.0440   24.0013  -75.2065 C.2       2 UNK         0.5004 
     61 O         -79.1276   24.5101  -75.8591 O.2       2 UNK        -0.5226 
     62 CA        -80.6996   24.7975  -74.0670 C.3       2 UNK         0.0269 
     63 CB        -80.1989   24.2922  -72.7030 C.3       2 UNK        -0.1926 
     64 N         -80.4000   26.2277  -74.1732 N.am      2 UNK        -0.4687 
     65 C         -80.9744   27.0670  -75.0453 C.2       1 UNK         0.5165 
     66 O         -81.8782   26.7211  -75.8119 O.2       1 UNK        -0.5079 
     67 H67       -82.2343   31.5286  -77.8908 H         1 UNK         0.0900 
     68 H68       -83.2830   30.9037  -76.6165 H         1 UNK         0.0900 
     69 H69       -83.2288   30.0997  -78.1863 H         1 UNK         0.0900 
     70 H70       -82.1623   29.7584  -75.0548 H         1 UNK         0.2959 
     71 H71       -79.5617   28.5083  -75.6780 H         1 UNK         0.1079 
     72 H72       -79.6702   30.0963  -73.7635 H         1 UNK         0.0837 
     73 H73       -79.1336   28.5128  -73.3165 H         1 UNK         0.0837 
     74 H74       -80.4132   30.8964  -71.1846 H         1 UNK         0.0685 
     75 H75       -81.1193   29.7390  -70.0827 H         1 UNK         0.0685 
     76 H76       -79.7337   27.2052  -70.6808 H         1 UNK         0.1434 
     77 H77       -75.5613   27.8493  -69.9229 H         1 UNK         0.1329 
     78 H78       -78.1656   31.1950  -70.5381 H         1 UNK         0.1335 
     79 H79       -75.8278   31.4164  -69.4212 H         1 UNK         0.0680 
     80 H80       -74.7287   30.0622  -69.5696 H         1 UNK         0.0680 
     81 H81       -73.1988   32.6719  -71.8648 H         1 UNK         0.1032 
     82 H82       -73.1807   31.8969  -70.3157 H         1 UNK         0.1032 
     83 H83       -71.3114   31.2345  -71.8975 H         1 UNK         0.0461 
     84 H84       -72.0598   27.4592  -70.8710 H         1 UNK         0.3453 
     85 H85       -72.3868   28.0666  -72.4741 H         1 UNK         0.3453 
     86 H86       -73.5038   30.4233  -73.6108 H         1 UNK         0.2984 
     87 H87       -73.2861   29.6465  -75.5729 H         1 UNK         0.0554 
     88 H88       -72.1865   30.3852  -77.6572 H         1 UNK         0.0847 
     89 H89       -70.6418   30.5611  -76.8232 H         1 UNK         0.0847 
     90 H90       -71.9888   31.6173  -76.4220 H         1 UNK         0.0847 
     91 H91       -71.5377   28.1219  -76.9880 H         1 UNK         0.3141 
     92 H92       -70.7096   25.9242  -76.5131 H         1 UNK         0.0743 
     93 H93       -72.5751   24.4184  -74.5971 H         1 UNK         0.0784 
     94 H94       -71.3403   23.6917  -75.6228 H         1 UNK         0.0784 
     95 H95       -70.8758   24.7658  -74.3121 H         1 UNK         0.0784 
     96 H96       -73.4421   24.9039  -76.8141 H         1 UNK         0.3213 
     97 H97       -73.8997   26.3903  -80.0626 H         1 UNK         0.0855 
     98 H98       -73.8572   23.5704  -78.8527 H         1 UNK         0.0814 
     99 H99       -72.8889   24.1214  -80.2129 H         1 UNK         0.0814 
    100 H100      -74.6369   24.0432  -80.3597 H         1 UNK         0.0814 
    101 H101      -75.3933   25.2422  -77.7399 H         1 UNK         0.3105 
    102 H102      -77.3661   28.1292  -77.3809 H         1 UNK         0.0547 
    103 H103      -78.3503   25.4692  -78.5468 H         1 UNK         0.0837 
    104 H104      -79.3347   26.6586  -77.6968 H         1 UNK         0.0837 
    105 H105      -78.6307   27.0571  -79.2523 H         1 UNK         0.0837 
    106 H106      -77.5887   25.5537  -76.1875 H         1 UNK         0.3020 
    107 H107      -74.7847   25.7480  -74.0442 H         1 UNK         0.1245 
    108 H108      -76.3163   27.3000  -72.8020 H         1 UNK         0.0781 
    109 H109      -77.6617   26.2281  -73.1140 H         1 UNK         0.0781 
    110 H110      -78.3238   25.3231  -70.4775 H         1 UNK         0.0836 
    111 H111      -77.0804   25.5543  -69.2765 H         1 UNK         0.0836 
    112 H112      -76.8959   23.9245  -73.9153 H         1 UNK         0.3022 
    113 H113      -75.7270   21.6422  -76.4315 H         1 UNK         0.0747 
    114 H114      -76.1694   20.2663  -74.4158 H         1 UNK         0.0793 
    115 H115      -74.8140   21.3259  -74.0785 H         1 UNK         0.0793 
    116 H116      -76.4032   21.7018  -73.4241 H         1 UNK         0.0793 
    117 H117      -77.9910   23.1863  -75.8302 H         1 UNK         0.3047 
    118 H118      -79.9302   22.2855  -77.3371 H         1 UNK         0.0822 
    119 H119      -81.9573   20.9744  -76.7445 H         1 UNK         0.0807 
    120 H120      -81.0331   20.0482  -75.5607 H         1 UNK         0.0807 
    121 H121      -80.6643   19.9161  -77.2750 H         1 UNK         0.0807 
    122 H122      -81.1813   22.3888  -74.7623 H         1 UNK         0.2946 
    123 H123      -81.7819   24.6600  -74.1259 H         1 UNK         0.1144 
    124 H124      -80.4918   23.2550  -72.5350 H         1 UNK         0.0793 
    125 H125      -80.6182   24.8775  -71.8842 H         1 UNK         0.0793 
    126 H126      -79.1124   24.3356  -72.6269 H         1 UNK         0.0793 
    127 H127      -79.6799   26.5834  -73.5654 H         1 UNK         0.2896 
@<TRIPOS>BOND
     1    1    2 1    
     2    1   67 1    
     3    1   68 1    
     4    1   69 1    
     5    2    3 2    
     6    2    4 am   BACKBONE|DICT|INTERRES
     7    4    5 1    
     8    4   70 1    
     9    5    6 1    
    10    5   65 1    
    11    5   71 1    
    12    6    7 1    
    13    6   72 1    
    14    6   73 1    
    15    7    8 1    
    16    8    9 1    
    17    8   74 1    
    18    8   75 1    
    19    9   10 ar   
    20    9   14 ar   
    21   10   11 ar   
    22   10   76 1    
    23   11   12 ar   
    24   11   48 1    
    25   12   13 ar   
    26   12   77 1    
    27   13   14 ar   
    28   13   15 1    
    29   14   78 1    
    30   15   16 1    
    31   15   79 1    
    32   15   80 1    
    33   16   17 1    
    34   17   18 1    
    35   17   81 1    
    36   17   82 1    
    37   18   19 1    
    38   18   22 1    
    39   18   83 1    
    40   19   20 am   BACKBONE|DICT|INTERRES
    41   19   21 2    
    42   20   84 1    
    43   20   85 1    
    44   22   23 am   BACKBONE|DICT|INTERRES
    45   22   86 1    
    46   23   24 2    
    47   23   25 1    
    48   25   26 1    
    49   25   27 1    
    50   25   87 1    
    51   26   88 1    
    52   26   89 1    
    53   26   90 1    
    54   27   28 am   BACKBONE|DICT|INTERRES
    55   27   91 1    
    56   28   29 2    
    57   28   30 1    
    58   30   31 1    
    59   30   32 1    
    60   30   92 1    
    61   31   93 1    
    62   31   94 1    
    63   31   95 1    
    64   32   33 am   BACKBONE|DICT|INTERRES
    65   32   96 1    
    66   33   34 2    
    67   33   35 1    
    68   35   36 1    
    69   35   37 1    
    70   35   97 1    
    71   36   98 1    
    72   36   99 1    
    73   36  100 1    
    74   37   38 am   BACKBONE|DICT|INTERRES
    75   37  101 1    
    76   38   39 2    
    77   38   40 1    
    78   40   41 1    
    79   40   42 1    
    80   40  102 1    
    81   41  103 1    
    82   41  104 1    
    83   41  105 1    
    84   42   43 am   BACKBONE|DICT|INTERRES
    85   42  106 1    
    86   43   44 2    
    87   43   45 1    
    88   45   46 1    
    89   45   49 1    
    90   45  107 1    
    91   46   47 1    
    92   46  108 1    
    93   46  109 1    
    94   47   48 1    
    95   48  110 1    
    96   48  111 1    
    97   49   50 am   BACKBONE|DICT|INTERRES
    98   49  112 1    
    99   50   51 2    
   100   50   52 1    
   101   52   53 1    
   102   52   54 1    
   103   52  113 1    
   104   53  114 1    
   105   53  115 1    
   106   53  116 1    
   107   54   55 am   BACKBONE|DICT|INTERRES
   108   54  117 1    
   109   55   56 2    
   110   55   57 1    
   111   57   58 1    
   112   57   59 1    
   113   57  118 1    
   114   58  119 1    
   115   58  120 1    
   116   58  121 1    
   117   59   60 am   BACKBONE|DICT|INTERRES
   118   59  122 1    
   119   60   61 2    
   120   60   62 1    
   121   62   63 1    
   122   62   64 1    
   123   62  123 1    
   124   63  124 1    
   125   63  125 1    
   126   63  126 1    
   127   64   65 am   BACKBONE|DICT|INTERRES
   128   64  127 1    
   129   65   66 2    
@<TRIPOS>SUBSTRUCTURE
     1 UNK         1 GROUP             0       ****    0 ROOT    
