@<TRIPOS>MOLECULE
3R135
127   129    1
SMALL
USER_CHARGES


@<TRIPOS>ATOM
      1 CA        -84.7498   25.5653  -73.8120 C.3       0 UNK        -0.1998 
      2 C         -83.8845   26.7988  -73.6004 C.2       0 UNK         0.4909 
      3 O         -84.4112   27.9056  -73.4821 O.2       0 UNK        -0.5240 
      4 N         -82.5618   26.6169  -73.5543 N.am      1 UNK        -0.4739 
      5 CA        -81.5608   27.6702  -73.4053 C.3       1 UNK         0.0864 
      6 C6        -81.3230   28.0250  -71.9150 C.3       11 UNK        -0.0881 
      7 S7        -80.4163   29.5944  -71.6846 S.3       11 UNK        -0.2682 
      8 C8        -79.3809   29.2227  -70.2334 C.3       11 UNK         0.0289 
      9 C9        -78.1220   28.4363  -70.5817 C.ar      11 UNK        -0.0687 
     10 C10       -78.0997   27.0426  -70.4568 C.ar      11 UNK        -0.0823 
     11 C11       -76.9237   26.3225  -70.6929 C.ar      11 UNK        -0.0830 
     12 C12       -75.7611   27.0129  -71.0506 C.ar      11 UNK        -0.1021 
     13 C13       -75.7688   28.4042  -71.1842 C.ar      11 UNK        -0.0753 
     14 C14       -76.9546   29.1106  -70.9586 C.ar      11 UNK        -0.0933 
     15 C15       -74.4788   29.1349  -71.5266 C.3       11 UNK         0.0166 
     16 S16       -74.2329   29.2474  -73.3240 S.3       11 UNK        -0.2615 
     17 C17       -74.6562   30.9947  -73.6719 C.3       11 UNK        -0.0865 
     18 CA        -73.4285   31.8696  -74.0534 C.3       10 UNK         0.0862 
     19 C         -72.5278   32.2496  -72.8425 C.2       10 UNK         0.5551 
     20 N         -71.2086   32.3098  -72.9926 N.am      10 UNK        -0.7319 
     21 O         -73.0296   32.5185  -71.7532 O.2       10 UNK        -0.5018 
     22 N         -72.6820   31.3045  -75.1883 N.am      10 UNK        -0.4509 
     23 C         -73.0332   31.3851  -76.4776 C.2       10 UNK         0.4899 
     24 O         -73.9947   32.0368  -76.8875 O.2       10 UNK        -0.4839 
     25 CA        -72.1696   30.6027  -77.4898 C.3       9 UNK         0.0222 
     26 CB        -71.2127   31.5544  -78.2272 C.3       9 UNK        -0.1966 
     27 N         -71.3936   29.5180  -76.8747 N.am      9 UNK        -0.4218 
     28 C         -71.9207   28.3766  -76.4098 C.2       9 UNK         0.5020 
     29 O         -73.1033   28.0531  -76.5549 O.2       9 UNK        -0.5274 
     30 CA        -70.9710   27.4629  -75.6225 C.3       8 UNK         0.0270 
     31 CB        -70.4275   28.1745  -74.3620 C.3       8 UNK        -0.1976 
     32 N         -71.7067   26.2610  -75.2418 N.am      8 UNK        -0.4313 
     33 C         -71.1845   25.1240  -74.7710 C.2       8 UNK         0.5041 
     34 O         -69.9755   24.9293  -74.6330 O.2       8 UNK        -0.5577 
     35 CA        -72.1721   24.0161  -74.3690 C.3       7 UNK         0.0284 
     36 CB        -72.5156   24.1257  -72.8741 C.3       7 UNK        -0.1958 
     37 N         -73.4127   24.0282  -75.1478 N.am      7 UNK        -0.4454 
     38 C         -73.5283   23.5915  -76.4098 C.2       7 UNK         0.5089 
     39 O         -72.5753   23.1760  -77.0713 O.2       7 UNK        -0.5125 
     40 CA        -74.9368   23.6262  -77.0435 C.3       6 UNK         0.0408 
     41 CB        -75.1744   22.4551  -78.0197 C.3       6 UNK        -0.1791 
     42 N         -76.0384   23.7244  -76.0761 N.am      6 UNK        -0.4762 
     43 C         -76.3741   22.8476  -75.1152 C.2       6 UNK         0.5007 
     44 O         -75.7829   21.7868  -74.9104 O.2       6 UNK        -0.5032 
     45 CA        -77.5817   23.2312  -74.2348 C.3       5 UNK         0.0783 
     46 C46       -77.2467   24.3981  -73.2736 C.3       11 UNK        -0.0857 
     47 S47       -76.1500   23.9120  -71.9041 S.3       11 UNK        -0.2512 
     48 C48       -76.9039   24.8070  -70.5043 C.3       11 UNK         0.0225 
     49 N         -78.7581   23.5549  -75.0415 N.am      5 UNK        -0.4615 
     50 C         -79.4174   22.7135  -75.8487 C.2       4 UNK         0.5053 
     51 O         -79.1401   21.5217  -75.9809 O.2       4 UNK        -0.5105 
     52 CA        -80.5902   23.3104  -76.6423 C.3       4 UNK         0.0263 
     53 CB        -81.8764   23.3024  -75.7994 C.3       4 UNK        -0.1981 
     54 N         -80.2957   24.6778  -77.0770 N.am      4 UNK        -0.4224 
     55 C         -79.5884   24.9826  -78.1745 C.2       3 UNK         0.4895 
     56 O         -79.1871   24.1480  -78.9860 O.2       3 UNK        -0.5091 
     57 CA        -79.2686   26.4699  -78.4112 C.3       3 UNK         0.0250 
     58 CB        -80.3698   27.1284  -79.2579 C.3       3 UNK        -0.1996 
     59 N         -79.0849   27.2348  -77.1744 N.am      3 UNK        -0.4254 
     60 C         -78.0669   27.0644  -76.3188 C.2       2 UNK         0.5004 
     61 O         -77.1638   26.2459  -76.4798 O.2       2 UNK        -0.5226 
     62 CA        -78.0801   27.9227  -75.0444 C.3       2 UNK         0.0269 
     63 CB        -77.4228   29.2814  -75.3139 C.3       2 UNK        -0.1926 
     64 N         -79.4102   28.1448  -74.4705 N.am      2 UNK        -0.4687 
     65 C         -80.2807   27.1934  -74.1115 C.2       1 UNK         0.5165 
     66 O         -80.1082   25.9886  -74.3235 O.2       1 UNK        -0.5079 
     67 H67       -85.3096   25.6550  -74.7424 H         1 UNK         0.0900 
     68 H68       -84.1556   24.6530  -73.8601 H         1 UNK         0.0900 
     69 H69       -85.4621   25.4618  -72.9939 H         1 UNK         0.0900 
     70 H70       -82.1585   25.6992  -73.6959 H         1 UNK         0.2959 
     71 H71       -81.9172   28.5570  -73.9353 H         1 UNK         0.1079 
     72 H72       -82.2812   28.1405  -71.4057 H         1 UNK         0.0837 
     73 H73       -80.8160   27.2065  -71.4036 H         1 UNK         0.0837 
     74 H74       -79.0969   30.1659  -69.7641 H         1 UNK         0.0685 
     75 H75       -79.9735   28.6880  -69.4891 H         1 UNK         0.0685 
     76 H76       -78.9927   26.5188  -70.1453 H         1 UNK         0.1434 
     77 H77       -74.8429   26.4658  -71.2157 H         1 UNK         0.1329 
     78 H78       -76.9619   30.1884  -71.0472 H         1 UNK         0.1335 
     79 H79       -73.6306   28.5990  -71.0974 H         1 UNK         0.0680 
     80 H80       -74.4642   30.1253  -71.0692 H         1 UNK         0.0680 
     81 H81       -75.2101   31.4303  -72.8385 H         1 UNK         0.1032 
     82 H82       -75.3522   31.0072  -74.5094 H         1 UNK         0.1032 
     83 H83       -73.8216   32.8335  -74.3828 H         1 UNK         0.0461 
     84 H84       -70.7775   32.1769  -73.8929 H         1 UNK         0.3453 
     85 H85       -70.6406   32.5641  -72.1992 H         1 UNK         0.3453 
     86 H86       -71.8963   30.7242  -74.9376 H         1 UNK         0.2984 
     87 H87       -72.8467   30.1637  -78.2262 H         1 UNK         0.0554 
     88 H88       -70.6451   31.0308  -78.9974 H         1 UNK         0.0847 
     89 H89       -70.5023   32.0246  -77.5456 H         1 UNK         0.0847 
     90 H90       -71.7649   32.3542  -78.7237 H         1 UNK         0.0847 
     91 H91       -70.4060   29.6866  -76.7423 H         1 UNK         0.3141 
     92 H92       -70.1441   27.1799  -76.2777 H         1 UNK         0.0743 
     93 H93       -69.8533   29.0655  -74.6174 H         1 UNK         0.0784 
     94 H94       -71.2349   28.4821  -73.6955 H         1 UNK         0.0784 
     95 H95       -69.7597   27.5279  -73.7924 H         1 UNK         0.0784 
     96 H96       -72.7072   26.3374  -75.3881 H         1 UNK         0.3213 
     97 H97       -71.6746   23.0573  -74.5333 H         1 UNK         0.0855 
     98 H98       -71.6118   24.1084  -72.2630 H         1 UNK         0.0814 
     99 H99       -73.1392   23.2923  -72.5493 H         1 UNK         0.0814 
    100 H100      -73.0454   25.0519  -72.6462 H         1 UNK         0.0814 
    101 H101      -74.2494   24.3420  -74.6785 H         1 UNK         0.3105 
    102 H102      -74.9761   24.5487  -77.6247 H         1 UNK         0.0547 
    103 H103      -74.4491   22.4686  -78.8340 H         1 UNK         0.0837 
    104 H104      -75.0855   21.4888  -77.5223 H         1 UNK         0.0837 
    105 H105      -76.1655   22.5112  -78.4705 H         1 UNK         0.0837 
    106 H106      -76.5823   24.5851  -76.1543 H         1 UNK         0.3020 
    107 H107      -77.8416   22.3544  -73.6370 H         1 UNK         0.1245 
    108 H108      -78.1701   24.7872  -72.8411 H         1 UNK         0.0781 
    109 H109      -76.7923   25.2365  -73.8028 H         1 UNK         0.0781 
    110 H110      -76.3417   24.5757  -69.5985 H         1 UNK         0.0836 
    111 H111      -77.9123   24.4208  -70.3459 H         1 UNK         0.0836 
    112 H112      -79.1150   24.5009  -74.9453 H         1 UNK         0.3022 
    113 H113      -80.7582   22.6832  -77.5207 H         1 UNK         0.0747 
    114 H114      -82.7179   23.7183  -76.3538 H         1 UNK         0.0793 
    115 H115      -82.1468   22.2843  -75.5160 H         1 UNK         0.0793 
    116 H116      -81.7629   23.8748  -74.8789 H         1 UNK         0.0793 
    117 H117      -80.5415   25.4212  -76.4372 H         1 UNK         0.3047 
    118 H118      -78.3326   26.5158  -78.9726 H         1 UNK         0.0822 
    119 H119      -80.1155   28.1584  -79.5091 H         1 UNK         0.0807 
    120 H120      -81.3299   27.1350  -78.7401 H         1 UNK         0.0807 
    121 H121      -80.5107   26.5934  -80.1983 H         1 UNK         0.0807 
    122 H122      -79.7809   27.9332  -76.9563 H         1 UNK         0.2946 
    123 H123      -77.4851   27.4057  -74.2890 H         1 UNK         0.1144 
    124 H124      -76.4059   29.1523  -75.6898 H         1 UNK         0.0793 
    125 H125      -77.3632   29.8689  -74.3978 H         1 UNK         0.0793 
    126 H126      -77.9750   29.8635  -76.0529 H         1 UNK         0.0793 
    127 H127      -79.6316   29.1000  -74.2255 H         1 UNK         0.2896 
@<TRIPOS>BOND
     1    1    2 1    
     2    1   67 1    
     3    1   68 1    
     4    1   69 1    
     5    2    3 2    
     6    2    4 am   BACKBONE|DICT|INTERRES
     7    4    5 1    
     8    4   70 1    
     9    5    6 1    
    10    5   65 1    
    11    5   71 1    
    12    6    7 1    
    13    6   72 1    
    14    6   73 1    
    15    7    8 1    
    16    8    9 1    
    17    8   74 1    
    18    8   75 1    
    19    9   10 ar   
    20    9   14 ar   
    21   10   11 ar   
    22   10   76 1    
    23   11   12 ar   
    24   11   48 1    
    25   12   13 ar   
    26   12   77 1    
    27   13   14 ar   
    28   13   15 1    
    29   14   78 1    
    30   15   16 1    
    31   15   79 1    
    32   15   80 1    
    33   16   17 1    
    34   17   18 1    
    35   17   81 1    
    36   17   82 1    
    37   18   19 1    
    38   18   22 1    
    39   18   83 1    
    40   19   20 am   BACKBONE|DICT|INTERRES
    41   19   21 2    
    42   20   84 1    
    43   20   85 1    
    44   22   23 am   BACKBONE|DICT|INTERRES
    45   22   86 1    
    46   23   24 2    
    47   23   25 1    
    48   25   26 1    
    49   25   27 1    
    50   25   87 1    
    51   26   88 1    
    52   26   89 1    
    53   26   90 1    
    54   27   28 am   BACKBONE|DICT|INTERRES
    55   27   91 1    
    56   28   29 2    
    57   28   30 1    
    58   30   31 1    
    59   30   32 1    
    60   30   92 1    
    61   31   93 1    
    62   31   94 1    
    63   31   95 1    
    64   32   33 am   BACKBONE|DICT|INTERRES
    65   32   96 1    
    66   33   34 2    
    67   33   35 1    
    68   35   36 1    
    69   35   37 1    
    70   35   97 1    
    71   36   98 1    
    72   36   99 1    
    73   36  100 1    
    74   37   38 am   BACKBONE|DICT|INTERRES
    75   37  101 1    
    76   38   39 2    
    77   38   40 1    
    78   40   41 1    
    79   40   42 1    
    80   40  102 1    
    81   41  103 1    
    82   41  104 1    
    83   41  105 1    
    84   42   43 am   BACKBONE|DICT|INTERRES
    85   42  106 1    
    86   43   44 2    
    87   43   45 1    
    88   45   46 1    
    89   45   49 1    
    90   45  107 1    
    91   46   47 1    
    92   46  108 1    
    93   46  109 1    
    94   47   48 1    
    95   48  110 1    
    96   48  111 1    
    97   49   50 am   BACKBONE|DICT|INTERRES
    98   49  112 1    
    99   50   51 2    
   100   50   52 1    
   101   52   53 1    
   102   52   54 1    
   103   52  113 1    
   104   53  114 1    
   105   53  115 1    
   106   53  116 1    
   107   54   55 am   BACKBONE|DICT|INTERRES
   108   54  117 1    
   109   55   56 2    
   110   55   57 1    
   111   57   58 1    
   112   57   59 1    
   113   57  118 1    
   114   58  119 1    
   115   58  120 1    
   116   58  121 1    
   117   59   60 am   BACKBONE|DICT|INTERRES
   118   59  122 1    
   119   60   61 2    
   120   60   62 1    
   121   62   63 1    
   122   62   64 1    
   123   62  123 1    
   124   63  124 1    
   125   63  125 1    
   126   63  126 1    
   127   64   65 am   BACKBONE|DICT|INTERRES
   128   64  127 1    
   129   65   66 2    
@<TRIPOS>SUBSTRUCTURE
     1 UNK         1 GROUP             0       ****    0 ROOT    
