@<TRIPOS>MOLECULE
3R135
127   129    1
SMALL
USER_CHARGES


@<TRIPOS>ATOM
      1 CA        -79.8402   29.2759  -70.8324 C.3       0 UNK        -0.1998 
      2 C         -80.7822   28.8765  -71.9575 C.2       0 UNK         0.4909 
      3 O         -81.9565   28.6022  -71.7091 O.2       0 UNK        -0.5240 
      4 N         -80.2735   28.8457  -73.1954 N.am      1 UNK        -0.4739 
      5 CA        -81.0227   28.5109  -74.4159 C.3       1 UNK         0.0864 
      6 C6        -80.2694   28.9079  -75.7135 C.3       11 UNK        -0.0881 
      7 S7        -79.5147   30.5699  -75.6667 S.3       11 UNK        -0.2682 
      8 C8        -77.7418   30.1518  -75.6804 C.3       11 UNK         0.0289 
      9 C9        -77.2492   29.6570  -74.3262 C.ar      11 UNK        -0.0687 
     10 C10       -77.2849   28.2966  -74.0036 C.ar      11 UNK        -0.0823 
     11 C11       -76.8093   27.8415  -72.7687 C.ar      11 UNK        -0.0830 
     12 C12       -76.2725   28.7606  -71.8623 C.ar      11 UNK        -0.1021 
     13 C13       -76.2125   30.1206  -72.1802 C.ar      11 UNK        -0.0753 
     14 C14       -76.7213   30.5632  -73.4047 C.ar      11 UNK        -0.0933 
     15 C15       -75.5994   31.1207  -71.2118 C.3       11 UNK         0.0166 
     16 S16       -74.1011   31.8682  -71.9268 S.3       11 UNK        -0.2615 
     17 C17       -72.7805   31.3321  -70.7812 C.3       11 UNK        -0.0865 
     18 CA        -72.2197   29.8941  -71.0003 C.3       10 UNK         0.0862 
     19 C         -72.8767   28.8307  -70.0709 C.2       10 UNK         0.5551 
     20 N         -73.3197   27.6850  -70.5730 N.am      10 UNK        -0.7319 
     21 O         -72.9640   29.0395  -68.8634 O.2       10 UNK        -0.5018 
     22 N         -72.1766   29.5193  -72.4227 N.am      10 UNK        -0.4509 
     23 C         -71.2581   28.7366  -73.0001 C.2       10 UNK         0.4899 
     24 O         -70.2726   28.2935  -72.4096 O.2       10 UNK        -0.4839 
     25 CA        -71.4755   28.3532  -74.4766 C.3       9 UNK         0.0222 
     26 CB        -71.6667   26.8326  -74.6088 C.3       9 UNK        -0.1966 
     27 N         -72.6183   29.0264  -75.1018 N.am      9 UNK        -0.4218 
     28 C         -72.6231   30.2718  -75.5911 C.2       9 UNK         0.5020 
     29 O         -71.6452   31.0211  -75.5607 O.2       9 UNK        -0.5274 
     30 CA        -73.9431   30.7375  -76.2422 C.3       8 UNK         0.0270 
     31 CB        -73.9218   32.2256  -76.6367 C.3       8 UNK        -0.1976 
     32 N         -74.3017   29.9323  -77.4175 N.am      8 UNK        -0.4313 
     33 C         -74.7770   28.6823  -77.3674 C.2       8 UNK         0.5041 
     34 O         -74.9810   28.0811  -76.3092 O.2       8 UNK        -0.5577 
     35 CA        -75.0466   27.9677  -78.6973 C.3       7 UNK         0.0284 
     36 CB        -73.7212   27.6184  -79.4042 C.3       7 UNK        -0.1958 
     37 N         -75.7881   26.7535  -78.3721 N.am      7 UNK        -0.4454 
     38 C         -76.3709   25.8852  -79.2038 C.2       7 UNK         0.5089 
     39 O         -76.4041   26.0356  -80.4262 O.2       7 UNK        -0.5125 
     40 CA        -77.0512   24.6505  -78.5657 C.3       6 UNK         0.0408 
     41 CB        -76.8923   23.3859  -79.4350 C.3       6 UNK        -0.1791 
     42 N         -76.6561   24.3861  -77.1717 N.am      6 UNK        -0.4762 
     43 C         -75.4293   24.0786  -76.7095 C.2       6 UNK         0.5007 
     44 O         -74.4411   23.9033  -77.4221 O.2       6 UNK        -0.5032 
     45 CA        -75.2890   23.9872  -75.1802 C.3       5 UNK         0.0783 
     46 C46       -75.3879   25.4058  -74.5717 C.3       11 UNK        -0.0857 
     47 S47       -75.3468   25.4668  -72.7521 S.3       11 UNK        -0.2512 
     48 C48       -76.8937   26.3640  -72.4006 C.3       11 UNK         0.0225 
     49 N         -76.2937   23.0566  -74.6649 N.am      5 UNK        -0.4615 
     50 C         -76.0693   21.7487  -74.4731 C.2       4 UNK         0.5053 
     51 O         -74.9632   21.2179  -74.5779 O.2       4 UNK        -0.5105 
     52 CA        -77.2876   20.8708  -74.1305 C.3       4 UNK         0.0263 
     53 CB        -77.4908   20.8040  -72.6082 C.3       4 UNK        -0.1981 
     54 N         -78.5197   21.3446  -74.7628 N.am      4 UNK        -0.4224 
     55 C         -78.7332   21.4112  -76.0857 C.2       3 UNK         0.4895 
     56 O         -77.9812   20.9140  -76.9234 O.2       3 UNK        -0.5091 
     57 CA        -79.9777   22.1871  -76.5608 C.3       3 UNK         0.0250 
     58 CB        -81.0285   21.2236  -77.1364 C.3       3 UNK        -0.1996 
     59 N         -80.6025   23.0135  -75.5196 N.am      3 UNK        -0.4254 
     60 C         -80.0477   24.0889  -74.9437 C.2       2 UNK         0.5004 
     61 O         -78.9258   24.5247  -75.2279 O.2       2 UNK        -0.5226 
     62 CA        -80.8437   24.7101  -73.7872 C.3       2 UNK         0.0269 
     63 CB        -80.3716   24.1280  -72.4440 C.3       2 UNK        -0.1926 
     64 N         -80.6818   26.1610  -73.7641 N.am      2 UNK        -0.4687 
     65 C         -81.4092   27.0181  -74.4934 C.2       1 UNK         0.5165 
     66 O         -82.3403   26.6717  -75.2223 O.2       1 UNK        -0.5079 
     67 H67       -79.4917   28.3912  -70.3005 H         1 UNK         0.0900 
     68 H68       -80.3521   29.9241  -70.1217 H         1 UNK         0.0900 
     69 H69       -78.9717   29.8149  -71.2094 H         1 UNK         0.0900 
     70 H70       -79.3085   29.1134  -73.3430 H         1 UNK         0.2959 
     71 H71       -81.9559   29.0777  -74.3845 H         1 UNK         0.1079 
     72 H72       -79.5029   28.1730  -75.9637 H         1 UNK         0.0837 
     73 H73       -80.9635   28.8904  -76.5561 H         1 UNK         0.0837 
     74 H74       -77.5445   29.4072  -76.4524 H         1 UNK         0.0685 
     75 H75       -77.1798   31.0397  -75.9740 H         1 UNK         0.0685 
     76 H76       -77.6879   27.5927  -74.7164 H         1 UNK         0.1434 
     77 H77       -75.9011   28.4140  -70.9084 H         1 UNK         0.1329 
     78 H78       -76.6800   31.6157  -73.6506 H         1 UNK         0.1335 
     79 H79       -75.3726   30.6504  -70.2540 H         1 UNK         0.0680 
     80 H80       -76.3243   31.9088  -71.0038 H         1 UNK         0.0680 
     81 H81       -73.1024   31.4970  -69.7511 H         1 UNK         0.1032 
     82 H82       -71.9606   32.0375  -70.9249 H         1 UNK         0.1032 
     83 H83       -71.1861   29.9279  -70.6506 H         1 UNK         0.0461 
     84 H84       -73.2609   27.5020  -71.5610 H         1 UNK         0.3453 
     85 H85       -73.7246   26.9994  -69.9564 H         1 UNK         0.3453 
     86 H86       -72.9587   29.8396  -72.9752 H         1 UNK         0.2984 
     87 H87       -70.5719   28.6304  -75.0233 H         1 UNK         0.0554 
     88 H88       -71.8666   26.5397  -75.6399 H         1 UNK         0.0847 
     89 H89       -72.4892   26.4759  -73.9889 H         1 UNK         0.0847 
     90 H90       -70.7703   26.2990  -74.2899 H         1 UNK         0.0847 
     91 H91       -73.4709   28.4839  -75.2320 H         1 UNK         0.3141 
     92 H92       -74.7212   30.6134  -75.4875 H         1 UNK         0.0743 
     93 H93       -74.8904   32.5483  -77.0190 H         1 UNK         0.0784 
     94 H94       -73.6916   32.8531  -75.7744 H         1 UNK         0.0784 
     95 H95       -73.1715   32.4317  -77.4010 H         1 UNK         0.0784 
     96 H96       -74.1234   30.3502  -78.3198 H         1 UNK         0.3213 
     97 H97       -75.6630   28.6081  -79.3312 H         1 UNK         0.0855 
     98 H98       -73.0994   26.9672  -78.7880 H         1 UNK         0.0814 
     99 H99       -73.1393   28.5141  -79.6240 H         1 UNK         0.0814 
    100 H100      -73.8933   27.1119  -80.3537 H         1 UNK         0.0814 
    101 H101      -75.8283   26.5867  -77.3731 H         1 UNK         0.3105 
    102 H102      -78.1154   24.8873  -78.5275 H         1 UNK         0.0547 
    103 H103      -77.3202   23.5348  -80.4270 H         1 UNK         0.0837 
    104 H104      -75.8449   23.1169  -79.5723 H         1 UNK         0.0837 
    105 H105      -77.4025   22.5316  -78.9922 H         1 UNK         0.0837 
    106 H106      -77.4022   24.5044  -76.4905 H         1 UNK         0.3020 
    107 H107      -74.2887   23.6059  -74.9607 H         1 UNK         0.1245 
    108 H108      -76.2927   25.8985  -74.9217 H         1 UNK         0.0781 
    109 H109      -74.5590   26.0144  -74.9301 H         1 UNK         0.0781 
    110 H110      -77.1242   26.2640  -71.3390 H         1 UNK         0.0836 
    111 H111      -77.7142   25.8858  -72.9355 H         1 UNK         0.0836 
    112 H112      -77.2370   23.4151  -74.5855 H         1 UNK         0.3022 
    113 H113      -77.0866   19.8625  -74.4989 H         1 UNK         0.0747 
    114 H114      -78.3090   20.1334  -72.3449 H         1 UNK         0.0793 
    115 H115      -76.5943   20.4286  -72.1126 H         1 UNK         0.0793 
    116 H116      -77.7092   21.7855  -72.1849 H         1 UNK         0.0793 
    117 H117      -79.2150   21.7472  -74.1534 H         1 UNK         0.3047 
    118 H118      -79.6490   22.8537  -77.3611 H         1 UNK         0.0822 
    119 H119      -81.8775   21.7647  -77.5546 H         1 UNK         0.0807 
    120 H120      -81.4063   20.5371  -76.3776 H         1 UNK         0.0807 
    121 H121      -80.6060   20.6192  -77.9406 H         1 UNK         0.0807 
    122 H122      -81.5183   22.7177  -75.2114 H         1 UNK         0.2946 
    123 H123      -81.9036   24.4747  -73.9125 H         1 UNK         0.1144 
    124 H124      -80.8999   24.5857  -71.6072 H         1 UNK         0.0793 
    125 H125      -79.3032   24.2738  -72.2843 H         1 UNK         0.0793 
    126 H126      -80.5627   23.0553  -72.3937 H         1 UNK         0.0793 
    127 H127      -79.9236   26.5316  -73.2123 H         1 UNK         0.2896 
@<TRIPOS>BOND
     1    1    2 1    
     2    1   67 1    
     3    1   68 1    
     4    1   69 1    
     5    2    3 2    
     6    2    4 am   BACKBONE|DICT|INTERRES
     7    4    5 1    
     8    4   70 1    
     9    5    6 1    
    10    5   65 1    
    11    5   71 1    
    12    6    7 1    
    13    6   72 1    
    14    6   73 1    
    15    7    8 1    
    16    8    9 1    
    17    8   74 1    
    18    8   75 1    
    19    9   10 ar   
    20    9   14 ar   
    21   10   11 ar   
    22   10   76 1    
    23   11   12 ar   
    24   11   48 1    
    25   12   13 ar   
    26   12   77 1    
    27   13   14 ar   
    28   13   15 1    
    29   14   78 1    
    30   15   16 1    
    31   15   79 1    
    32   15   80 1    
    33   16   17 1    
    34   17   18 1    
    35   17   81 1    
    36   17   82 1    
    37   18   19 1    
    38   18   22 1    
    39   18   83 1    
    40   19   20 am   BACKBONE|DICT|INTERRES
    41   19   21 2    
    42   20   84 1    
    43   20   85 1    
    44   22   23 am   BACKBONE|DICT|INTERRES
    45   22   86 1    
    46   23   24 2    
    47   23   25 1    
    48   25   26 1    
    49   25   27 1    
    50   25   87 1    
    51   26   88 1    
    52   26   89 1    
    53   26   90 1    
    54   27   28 am   BACKBONE|DICT|INTERRES
    55   27   91 1    
    56   28   29 2    
    57   28   30 1    
    58   30   31 1    
    59   30   32 1    
    60   30   92 1    
    61   31   93 1    
    62   31   94 1    
    63   31   95 1    
    64   32   33 am   BACKBONE|DICT|INTERRES
    65   32   96 1    
    66   33   34 2    
    67   33   35 1    
    68   35   36 1    
    69   35   37 1    
    70   35   97 1    
    71   36   98 1    
    72   36   99 1    
    73   36  100 1    
    74   37   38 am   BACKBONE|DICT|INTERRES
    75   37  101 1    
    76   38   39 2    
    77   38   40 1    
    78   40   41 1    
    79   40   42 1    
    80   40  102 1    
    81   41  103 1    
    82   41  104 1    
    83   41  105 1    
    84   42   43 am   BACKBONE|DICT|INTERRES
    85   42  106 1    
    86   43   44 2    
    87   43   45 1    
    88   45   46 1    
    89   45   49 1    
    90   45  107 1    
    91   46   47 1    
    92   46  108 1    
    93   46  109 1    
    94   47   48 1    
    95   48  110 1    
    96   48  111 1    
    97   49   50 am   BACKBONE|DICT|INTERRES
    98   49  112 1    
    99   50   51 2    
   100   50   52 1    
   101   52   53 1    
   102   52   54 1    
   103   52  113 1    
   104   53  114 1    
   105   53  115 1    
   106   53  116 1    
   107   54   55 am   BACKBONE|DICT|INTERRES
   108   54  117 1    
   109   55   56 2    
   110   55   57 1    
   111   57   58 1    
   112   57   59 1    
   113   57  118 1    
   114   58  119 1    
   115   58  120 1    
   116   58  121 1    
   117   59   60 am   BACKBONE|DICT|INTERRES
   118   59  122 1    
   119   60   61 2    
   120   60   62 1    
   121   62   63 1    
   122   62   64 1    
   123   62  123 1    
   124   63  124 1    
   125   63  125 1    
   126   63  126 1    
   127   64   65 am   BACKBONE|DICT|INTERRES
   128   64  127 1    
   129   65   66 2    
@<TRIPOS>SUBSTRUCTURE
     1 UNK         1 GROUP             0       ****    0 ROOT    
