@<TRIPOS>MOLECULE
3R135
127   129    1
SMALL
USER_CHARGES


@<TRIPOS>ATOM
      1 CA        -86.1349   29.2464  -75.9333 C.3       0 UNK        -0.1998 
      2 C         -84.6567   28.9463  -75.7337 C.2       0 UNK         0.4909 
      3 O         -83.9793   28.5479  -76.6822 O.2       0 UNK        -0.5240 
      4 N         -84.1493   29.1423  -74.5099 N.am      1 UNK        -0.4739 
      5 CA        -82.7679   28.8393  -74.1219 C.3       1 UNK         0.0864 
      6 C6        -82.3902   29.5749  -72.8117 C.3       11 UNK        -0.0881 
      7 S7        -80.5849   29.7299  -72.6091 S.3       11 UNK        -0.2682 
      8 C8        -80.3293   28.9499  -70.9807 C.3       11 UNK         0.0289 
      9 C9        -78.8620   28.6212  -70.7344 C.ar      11 UNK        -0.0687 
     10 C10       -78.4814   27.3179  -70.3992 C.ar      11 UNK        -0.0823 
     11 C11       -77.1325   26.9926  -70.2277 C.ar      11 UNK        -0.0830 
     12 C12       -76.1597   27.9872  -70.3793 C.ar      11 UNK        -0.1021 
     13 C13       -76.5267   29.2955  -70.7065 C.ar      11 UNK        -0.0753 
     14 C14       -77.8799   29.6098  -70.8611 C.ar      11 UNK        -0.0933 
     15 C15       -75.4659   30.3649  -70.9243 C.3       11 UNK         0.0166 
     16 S16       -75.3308   30.7960  -72.6881 S.3       11 UNK        -0.2615 
     17 C17       -73.9545   31.9976  -72.6737 C.3       11 UNK        -0.0865 
     18 CA        -72.8142   31.6075  -73.6551 C.3       10 UNK         0.0862 
     19 C         -71.7402   32.7280  -73.7691 C.2       10 UNK         0.5551 
     20 N         -70.4499   32.4227  -73.6959 N.am      10 UNK        -0.7319 
     21 O         -72.0806   33.8958  -73.9428 O.2       10 UNK        -0.5018 
     22 N         -72.2458   30.2887  -73.3244 N.am      10 UNK        -0.4509 
     23 C         -72.2257   29.2284  -74.1389 C.2       10 UNK         0.4899 
     24 O         -72.6453   29.2338  -75.2983 O.2       10 UNK        -0.4839 
     25 CA        -71.6747   27.9353  -73.5159 C.3       9 UNK         0.0222 
     26 CB        -72.6351   27.4168  -72.4291 C.3       9 UNK        -0.1966 
     27 N         -71.4939   26.8858  -74.5199 N.am      9 UNK        -0.4218 
     28 C         -70.4189   26.7459  -75.3053 C.2       9 UNK         0.5020 
     29 O         -69.4366   27.4880  -75.2502 O.2       9 UNK        -0.5274 
     30 CA        -70.4093   25.5767  -76.3043 C.3       8 UNK         0.0270 
     31 CB        -69.9169   24.2858  -75.6268 C.3       8 UNK        -0.1976 
     32 N         -71.7123   25.3351  -76.9346 N.am      8 UNK        -0.4313 
     33 C         -71.8794   25.0080  -78.2257 C.2       8 UNK         0.5041 
     34 O         -70.9465   24.8835  -79.0213 O.2       8 UNK        -0.5577 
     35 CA        -73.3146   24.7589  -78.7387 C.3       7 UNK         0.0284 
     36 CB        -73.5947   23.2497  -78.8279 C.3       7 UNK        -0.1958 
     37 N         -74.3606   25.3801  -77.9273 N.am      7 UNK        -0.4454 
     38 C         -74.5211   26.6956  -77.7387 C.2       7 UNK         0.5089 
     39 O         -73.8881   27.5543  -78.3533 O.2       7 UNK        -0.5125 
     40 CA        -75.5343   27.1299  -76.6622 C.3       6 UNK         0.0408 
     41 CB        -76.8166   27.6621  -77.3191 C.3       6 UNK        -0.1791 
     42 N         -75.8932   26.0989  -75.6775 N.am      6 UNK        -0.4762 
     43 C         -75.0440   25.4411  -74.8710 C.2       6 UNK         0.5007 
     44 O         -73.8185   25.5184  -74.9494 O.2       6 UNK        -0.5032 
     45 CA        -75.6727   24.5282  -73.8093 C.3       5 UNK         0.0783 
     46 C46       -76.3425   25.3913  -72.7188 C.3       11 UNK        -0.0857 
     47 S47       -77.0360   24.4321  -71.3337 S.3       11 UNK        -0.2512 
     48 C48       -76.7197   25.5552  -69.9276 C.3       11 UNK         0.0225 
     49 N         -76.5891   23.5888  -74.4532 N.am      5 UNK        -0.4615 
     50 C         -76.1909   22.4842  -75.0993 C.2       4 UNK         0.5053 
     51 O         -75.0256   22.0885  -75.1253 O.2       4 UNK        -0.5105 
     52 CA        -77.2658   21.6941  -75.8656 C.3       4 UNK         0.0263 
     53 CB        -77.8827   20.6131  -74.9638 C.3       4 UNK        -0.1981 
     54 N         -78.3307   22.5432  -76.4040 N.am      4 UNK        -0.4224 
     55 C         -78.1621   23.4813  -77.3479 C.2       3 UNK         0.4895 
     56 O         -77.0926   23.7046  -77.9155 O.2       3 UNK        -0.5091 
     57 CA        -79.3919   24.3434  -77.6830 C.3       3 UNK         0.0250 
     58 CB        -80.2162   23.6920  -78.8048 C.3       3 UNK        -0.1996 
     59 N         -80.2584   24.6096  -76.5269 N.am      3 UNK        -0.4254 
     60 C         -79.8768   25.2700  -75.4247 C.2       2 UNK         0.5004 
     61 O         -78.7432   25.7247  -75.2559 O.2       2 UNK        -0.5226 
     62 CA        -80.9303   25.4589  -74.3307 C.3       2 UNK         0.0269 
     63 CB        -80.3856   25.0712  -72.9443 C.3       2 UNK        -0.1926 
     64 N         -81.3288   26.8615  -74.3305 N.am      2 UNK        -0.4687 
     65 C         -82.5481   27.3132  -74.0180 C.2       1 UNK         0.5165 
     66 O         -83.4713   26.5835  -73.6445 O.2       1 UNK        -0.5079 
     67 H67       -86.2627   30.0102  -76.6998 H         1 UNK         0.0900 
     68 H68       -86.6061   29.6030  -75.0176 H         1 UNK         0.0900 
     69 H69       -86.6593   28.3476  -76.2565 H         1 UNK         0.0900 
     70 H70       -84.7609   29.4380  -73.7624 H         1 UNK         0.2959 
     71 H71       -82.1264   29.2162  -74.9225 H         1 UNK         0.1079 
     72 H72       -82.7877   30.5912  -72.8279 H         1 UNK         0.0837 
     73 H73       -82.8426   29.0940  -71.9421 H         1 UNK         0.0837 
     74 H74       -80.9332   28.0426  -70.9241 H         1 UNK         0.0685 
     75 H75       -80.6885   29.6186  -70.1974 H         1 UNK         0.0685 
     76 H76       -79.2300   26.5437  -70.3005 H         1 UNK         0.1434 
     77 H77       -75.1134   27.7374  -70.2673 H         1 UNK         0.1329 
     78 H78       -78.1656   30.6190  -71.1249 H         1 UNK         0.1335 
     79 H79       -74.4952   30.0236  -70.5611 H         1 UNK         0.0680 
     80 H80       -75.7216   31.2565  -70.3498 H         1 UNK         0.0680 
     81 H81       -74.3726   32.9703  -72.9397 H         1 UNK         0.1032 
     82 H82       -73.5628   32.1069  -71.6609 H         1 UNK         0.1032 
     83 H83       -73.2601   31.5639  -74.6503 H         1 UNK         0.0461 
     84 H84       -70.1561   31.4654  -73.5859 H         1 UNK         0.3453 
     85 H85       -69.7632   33.1561  -73.7771 H         1 UNK         0.3453 
     86 H86       -71.8681   30.1979  -72.3925 H         1 UNK         0.2984 
     87 H87       -70.7103   28.1544  -73.0528 H         1 UNK         0.0554 
     88 H88       -72.3214   26.4459  -72.0452 H         1 UNK         0.0847 
     89 H89       -73.6511   27.3166  -72.8108 H         1 UNK         0.0847 
     90 H90       -72.6781   28.0992  -71.5798 H         1 UNK         0.0847 
     91 H91       -72.2983   26.2764  -74.6578 H         1 UNK         0.3141 
     92 H92       -69.6834   25.8491  -77.0736 H         1 UNK         0.0743 
     93 H93       -68.9527   24.4410  -75.1405 H         1 UNK         0.0784 
     94 H94       -69.7875   23.4830  -76.3529 H         1 UNK         0.0784 
     95 H95       -70.6169   23.9392  -74.8654 H         1 UNK         0.0784 
     96 H96       -72.5363   25.4210  -76.3451 H         1 UNK         0.3213 
     97 H97       -73.3790   25.1825  -79.7431 H         1 UNK         0.0855 
     98 H98       -73.5706   22.7771  -77.8447 H         1 UNK         0.0814 
     99 H99       -72.8516   22.7491  -79.4502 H         1 UNK         0.0814 
    100 H100      -74.5721   23.0527  -79.2695 H         1 UNK         0.0814 
    101 H101      -74.9814   24.7573  -77.4266 H         1 UNK         0.3105 
    102 H102      -75.0737   27.9488  -76.1060 H         1 UNK         0.0547 
    103 H103      -77.5226   28.0326  -76.5755 H         1 UNK         0.0837 
    104 H104      -76.5953   28.4884  -77.9959 H         1 UNK         0.0837 
    105 H105      -77.3155   26.8885  -77.9020 H         1 UNK         0.0837 
    106 H106      -76.8913   25.9484  -75.5411 H         1 UNK         0.3020 
    107 H107      -74.8633   23.9638  -73.3395 H         1 UNK         0.1245 
    108 H108      -77.1407   26.0104  -73.1322 H         1 UNK         0.0781 
    109 H109      -75.6030   26.0833  -72.3158 H         1 UNK         0.0781 
    110 H110      -77.2650   25.1952  -69.0542 H         1 UNK         0.0836 
    111 H111      -75.6609   25.5043  -69.6687 H         1 UNK         0.0836 
    112 H112      -77.5563   23.8745  -74.5078 H         1 UNK         0.3022 
    113 H113      -76.7742   21.2014  -76.7074 H         1 UNK         0.0747 
    114 H114      -78.5908   19.9928  -75.5137 H         1 UNK         0.0793 
    115 H115      -77.1120   19.9492  -74.5692 H         1 UNK         0.0793 
    116 H116      -78.4059   21.0474  -74.1107 H         1 UNK         0.0793 
    117 H117      -79.2508   22.4289  -76.0050 H         1 UNK         0.3047 
    118 H118      -79.0271   25.3049  -78.0476 H         1 UNK         0.0822 
    119 H119      -81.0360   24.3372  -79.1214 H         1 UNK         0.0807 
    120 H120      -80.6403   22.7362  -78.4946 H         1 UNK         0.0807 
    121 H121      -79.5977   23.5039  -79.6838 H         1 UNK         0.0807 
    122 H122      -81.2128   24.2859  -76.5970 H         1 UNK         0.2946 
    123 H123      -81.7911   24.8250  -74.5566 H         1 UNK         0.1144 
    124 H124      -81.1573   25.1507  -72.1786 H         1 UNK         0.0793 
    125 H125      -79.5568   25.7142  -72.6478 H         1 UNK         0.0793 
    126 H126      -80.0222   24.0430  -72.9358 H         1 UNK         0.0793 
    127 H127      -80.6111   27.5146  -74.6177 H         1 UNK         0.2896 
@<TRIPOS>BOND
     1    1    2 1    
     2    1   67 1    
     3    1   68 1    
     4    1   69 1    
     5    2    3 2    
     6    2    4 am   BACKBONE|DICT|INTERRES
     7    4    5 1    
     8    4   70 1    
     9    5    6 1    
    10    5   65 1    
    11    5   71 1    
    12    6    7 1    
    13    6   72 1    
    14    6   73 1    
    15    7    8 1    
    16    8    9 1    
    17    8   74 1    
    18    8   75 1    
    19    9   10 ar   
    20    9   14 ar   
    21   10   11 ar   
    22   10   76 1    
    23   11   12 ar   
    24   11   48 1    
    25   12   13 ar   
    26   12   77 1    
    27   13   14 ar   
    28   13   15 1    
    29   14   78 1    
    30   15   16 1    
    31   15   79 1    
    32   15   80 1    
    33   16   17 1    
    34   17   18 1    
    35   17   81 1    
    36   17   82 1    
    37   18   19 1    
    38   18   22 1    
    39   18   83 1    
    40   19   20 am   BACKBONE|DICT|INTERRES
    41   19   21 2    
    42   20   84 1    
    43   20   85 1    
    44   22   23 am   BACKBONE|DICT|INTERRES
    45   22   86 1    
    46   23   24 2    
    47   23   25 1    
    48   25   26 1    
    49   25   27 1    
    50   25   87 1    
    51   26   88 1    
    52   26   89 1    
    53   26   90 1    
    54   27   28 am   BACKBONE|DICT|INTERRES
    55   27   91 1    
    56   28   29 2    
    57   28   30 1    
    58   30   31 1    
    59   30   32 1    
    60   30   92 1    
    61   31   93 1    
    62   31   94 1    
    63   31   95 1    
    64   32   33 am   BACKBONE|DICT|INTERRES
    65   32   96 1    
    66   33   34 2    
    67   33   35 1    
    68   35   36 1    
    69   35   37 1    
    70   35   97 1    
    71   36   98 1    
    72   36   99 1    
    73   36  100 1    
    74   37   38 am   BACKBONE|DICT|INTERRES
    75   37  101 1    
    76   38   39 2    
    77   38   40 1    
    78   40   41 1    
    79   40   42 1    
    80   40  102 1    
    81   41  103 1    
    82   41  104 1    
    83   41  105 1    
    84   42   43 am   BACKBONE|DICT|INTERRES
    85   42  106 1    
    86   43   44 2    
    87   43   45 1    
    88   45   46 1    
    89   45   49 1    
    90   45  107 1    
    91   46   47 1    
    92   46  108 1    
    93   46  109 1    
    94   47   48 1    
    95   48  110 1    
    96   48  111 1    
    97   49   50 am   BACKBONE|DICT|INTERRES
    98   49  112 1    
    99   50   51 2    
   100   50   52 1    
   101   52   53 1    
   102   52   54 1    
   103   52  113 1    
   104   53  114 1    
   105   53  115 1    
   106   53  116 1    
   107   54   55 am   BACKBONE|DICT|INTERRES
   108   54  117 1    
   109   55   56 2    
   110   55   57 1    
   111   57   58 1    
   112   57   59 1    
   113   57  118 1    
   114   58  119 1    
   115   58  120 1    
   116   58  121 1    
   117   59   60 am   BACKBONE|DICT|INTERRES
   118   59  122 1    
   119   60   61 2    
   120   60   62 1    
   121   62   63 1    
   122   62   64 1    
   123   62  123 1    
   124   63  124 1    
   125   63  125 1    
   126   63  126 1    
   127   64   65 am   BACKBONE|DICT|INTERRES
   128   64  127 1    
   129   65   66 2    
@<TRIPOS>SUBSTRUCTURE
     1 UNK         1 GROUP             0       ****    0 ROOT    
