@<TRIPOS>MOLECULE
3R135
127   129    1
SMALL
USER_CHARGES


@<TRIPOS>ATOM
      1 CA        -85.5605   27.2133  -72.5432 C.3       0 UNK        -0.1998 
      2 C         -84.5341   27.8606  -73.4607 C.2       0 UNK         0.4909 
      3 O         -84.8945   28.3558  -74.5289 O.2       0 UNK        -0.5240 
      4 N         -83.2579   27.8623  -73.0512 N.am      1 UNK        -0.4739 
      5 CA        -82.1330   28.4168  -73.8191 C.3       1 UNK         0.0864 
      6 C6        -80.8926   28.6331  -72.9150 C.3       11 UNK        -0.0881 
      7 S7        -79.9017   30.0815  -73.4114 S.3       11 UNK        -0.2682 
      8 C8        -79.0719   30.4984  -71.8447 C.3       11 UNK         0.0289 
      9 C9        -78.0245   29.4597  -71.4683 C.ar      11 UNK        -0.0687 
     10 C10       -78.3775   28.3509  -70.6954 C.ar      11 UNK        -0.0823 
     11 C11       -77.4240   27.3905  -70.3509 C.ar      11 UNK        -0.0830 
     12 C12       -76.1015   27.5617  -70.7734 C.ar      11 UNK        -0.1021 
     13 C13       -75.7253   28.6659  -71.5465 C.ar      11 UNK        -0.0753 
     14 C14       -76.7000   29.6135  -71.8865 C.ar      11 UNK        -0.0933 
     15 C15       -74.2665   28.7662  -72.0014 C.3       11 UNK         0.0166 
     16 S16       -73.6521   30.4449  -72.3851 S.3       11 UNK        -0.2615 
     17 C17       -74.1236   30.6987  -74.1372 C.3       11 UNK        -0.0865 
     18 CA        -73.4112   29.7689  -75.1621 C.3       10 UNK         0.0862 
     19 C         -73.8410   30.0555  -76.6338 C.2       10 UNK         0.5551 
     20 N         -72.9792   29.8787  -77.6294 N.am      10 UNK        -0.7319 
     21 O         -74.9860   30.4221  -76.8833 O.2       10 UNK        -0.5018 
     22 N         -71.9603   29.6493  -74.9664 N.am      10 UNK        -0.4509 
     23 C         -71.0515   30.6268  -75.0833 C.2       10 UNK         0.4899 
     24 O         -71.3289   31.8147  -75.2493 O.2       10 UNK        -0.4839 
     25 CA        -69.5695   30.2012  -75.0489 C.3       9 UNK         0.0222 
     26 CB        -68.9877   30.4064  -73.6410 C.3       9 UNK        -0.1966 
     27 N         -69.3439   28.8122  -75.4694 N.am      9 UNK        -0.4218 
     28 C         -69.6532   28.3070  -76.6728 C.2       9 UNK         0.5020 
     29 O         -70.1000   28.9806  -77.6035 O.2       9 UNK        -0.5274 
     30 CA        -69.5103   26.7855  -76.8639 C.3       8 UNK         0.0270 
     31 CB        -68.6906   26.0771  -75.7598 C.3       8 UNK        -0.1976 
     32 N         -70.8277   26.1537  -77.0214 N.am      8 UNK        -0.4313 
     33 C         -71.8481   26.1928  -76.1512 C.2       8 UNK         0.5041 
     34 O         -71.7964   26.7502  -75.0501 O.2       8 UNK        -0.5577 
     35 CA        -73.1327   25.4721  -76.5817 C.3       7 UNK         0.0284 
     36 CB        -72.9849   23.9539  -76.3860 C.3       7 UNK        -0.1958 
     37 N         -74.2484   25.9376  -75.7625 N.am      7 UNK        -0.4454 
     38 C         -75.3544   26.5457  -76.1986 C.2       7 UNK         0.5089 
     39 O         -75.6042   26.7467  -77.3878 O.2       7 UNK        -0.5125 
     40 CA        -76.3466   26.9977  -75.1078 C.3       6 UNK         0.0408 
     41 CB        -77.4966   27.8551  -75.6635 C.3       6 UNK        -0.1791 
     42 N         -76.9107   25.8615  -74.3783 N.am      6 UNK        -0.4762 
     43 C         -76.2793   25.1516  -73.4308 C.2       6 UNK         0.5007 
     44 O         -75.1218   25.3765  -73.0729 O.2       6 UNK        -0.5032 
     45 CA        -77.0450   23.9676  -72.8145 C.3       5 UNK         0.0783 
     46 C46       -78.0399   24.4194  -71.7143 C.3       11 UNK        -0.0857 
     47 S47       -77.2097   24.5933  -70.0982 S.3       11 UNK        -0.2512 
     48 C48       -77.8332   26.1970  -69.4924 C.3       11 UNK         0.0225 
     49 N         -77.7070   23.2003  -73.8721 N.am      5 UNK        -0.4615 
     50 C         -77.3203   21.9846  -74.2855 C.2       4 UNK         0.5053 
     51 O         -76.4217   21.3316  -73.7543 O.2       4 UNK        -0.5105 
     52 CA        -78.0477   21.3861  -75.5053 C.3       4 UNK         0.0263 
     53 CB        -79.2136   20.4937  -75.0500 C.3       4 UNK        -0.1981 
     54 N         -78.5526   22.4011  -76.4311 N.am      4 UNK        -0.4224 
     55 C         -77.7885   23.2489  -77.1347 C.2       3 UNK         0.4895 
     56 O         -76.5621   23.1715  -77.1918 O.2       3 UNK        -0.5091 
     57 CA        -78.5033   24.3909  -77.8830 C.3       3 UNK         0.0250 
     58 CB        -78.5064   24.1194  -79.3963 C.3       3 UNK        -0.1996 
     59 N         -79.8794   24.6646  -77.4436 N.am      3 UNK        -0.4254 
     60 C         -80.2574   25.0282  -76.2098 C.2       2 UNK         0.5004 
     61 O         -79.4885   25.1078  -75.2469 O.2       2 UNK        -0.5226 
     62 CA        -81.7623   25.2577  -76.0061 C.3       2 UNK         0.0269 
     63 CB        -82.4525   23.9358  -75.6314 C.3       2 UNK        -0.1926 
     64 N         -82.0286   26.2415  -74.9575 N.am      2 UNK        -0.4687 
     65 C         -81.7877   27.5572  -75.0565 C.2       1 UNK         0.5165 
     66 O         -81.3443   28.0940  -76.0730 O.2       1 UNK        -0.5079 
     67 H67       -86.0505   26.3850  -73.0544 H         1 UNK         0.0900 
     68 H68       -86.3228   27.9393  -72.2621 H         1 UNK         0.0900 
     69 H69       -85.1070   26.8277  -71.6303 H         1 UNK         0.0900 
     70 H70       -83.0251   27.4470  -72.1601 H         1 UNK         0.2959 
     71 H71       -82.4622   29.3890  -74.1944 H         1 UNK         0.1079 
     72 H72       -81.2155   28.8068  -71.8874 H         1 UNK         0.0837 
     73 H73       -80.2528   27.7482  -72.8809 H         1 UNK         0.0837 
     74 H74       -78.6017   31.4775  -71.9483 H         1 UNK         0.0685 
     75 H75       -79.8113   30.6023  -71.0491 H         1 UNK         0.0685 
     76 H76       -79.3990   28.2373  -70.3603 H         1 UNK         0.1434 
     77 H77       -75.3597   26.8203  -70.5086 H         1 UNK         0.1329 
     78 H78       -76.4444   30.4820  -72.4716 H         1 UNK         0.1335 
     79 H79       -73.6303   28.3809  -71.2032 H         1 UNK         0.0680 
     80 H80       -74.1036   28.1008  -72.8478 H         1 UNK         0.0680 
     81 H81       -73.9151   31.7418  -74.3808 H         1 UNK         0.1032 
     82 H82       -75.2029   30.5879  -74.2371 H         1 UNK         0.1032 
     83 H83       -73.7814   28.7627  -74.9822 H         1 UNK         0.0461 
     84 H84       -73.2812   30.0608  -78.5729 H         1 UNK         0.3453 
     85 H85       -72.0237   29.5868  -77.4566 H         1 UNK         0.3453 
     86 H86       -71.6353   28.6924  -74.8562 H         1 UNK         0.2984 
     87 H87       -69.0273   30.8471  -75.7425 H         1 UNK         0.0554 
     88 H88       -67.9200   30.1884  -73.6143 H         1 UNK         0.0847 
     89 H89       -69.4814   29.7715  -72.9039 H         1 UNK         0.0847 
     90 H90       -69.1135   31.4398  -73.3146 H         1 UNK         0.0847 
     91 H91       -69.0177   28.1708  -74.7608 H         1 UNK         0.3141 
     92 H92       -68.9801   26.6466  -77.8074 H         1 UNK         0.0743 
     93 H93       -69.1740   26.1232  -74.7834 H         1 UNK         0.0784 
     94 H94       -68.5481   25.0235  -76.0005 H         1 UNK         0.0784 
     95 H95       -67.6967   26.5164  -75.6626 H         1 UNK         0.0784 
     96 H96       -70.9789   25.6935  -77.9087 H         1 UNK         0.3213 
     97 H97       -73.3158   25.6863  -77.6368 H         1 UNK         0.0855 
     98 H98       -72.1713   23.5528  -76.9915 H         1 UNK         0.0814 
     99 H99       -73.8939   23.4286  -76.6793 H         1 UNK         0.0814 
    100 H100      -72.7754   23.7000  -75.3459 H         1 UNK         0.0814 
    101 H101      -74.1310   25.8347  -74.7583 H         1 UNK         0.3105 
    102 H102      -75.7986   27.6202  -74.4003 H         1 UNK         0.0547 
    103 H103      -77.1141   28.7466  -76.1615 H         1 UNK         0.0837 
    104 H104      -78.1016   27.3107  -76.3880 H         1 UNK         0.0837 
    105 H105      -78.1577   28.1891  -74.8648 H         1 UNK         0.0837 
    106 H106      -77.8583   25.5975  -74.6416 H         1 UNK         0.3020 
    107 H107      -76.2902   23.3340  -72.3424 H         1 UNK         0.1245 
    108 H108      -78.8193   23.6670  -71.5834 H         1 UNK         0.0781 
    109 H109      -78.5608   25.3388  -71.9900 H         1 UNK         0.0781 
    110 H110      -77.4574   26.3556  -68.4809 H         1 UNK         0.0836 
    111 H111      -78.9193   26.1332  -69.4081 H         1 UNK         0.0836 
    112 H112      -78.4389   23.6838  -74.3829 H         1 UNK         0.3022 
    113 H113      -77.3293   20.7665  -76.0464 H         1 UNK         0.0747 
    114 H114      -79.6913   20.0009  -75.8970 H         1 UNK         0.0793 
    115 H115      -78.8640   19.7097  -74.3766 H         1 UNK         0.0793 
    116 H116      -79.9760   21.0641  -74.5176 H         1 UNK         0.0793 
    117 H117      -79.5527   22.5301  -76.4625 H         1 UNK         0.3047 
    118 H118      -77.9198   25.2950  -77.7030 H         1 UNK         0.0822 
    119 H119      -78.9090   24.9667  -79.9518 H         1 UNK         0.0807 
    120 H120      -79.0980   23.2382  -79.6475 H         1 UNK         0.0807 
    121 H121      -77.4936   23.9481  -79.7644 H         1 UNK         0.0807 
    122 H122      -80.5887   24.5957  -78.1597 H         1 UNK         0.2946 
    123 H123      -82.1911   25.6322  -76.9386 H         1 UNK         0.1144 
    124 H124      -82.3166   23.1849  -76.4108 H         1 UNK         0.0793 
    125 H125      -83.5266   24.0722  -75.5025 H         1 UNK         0.0793 
    126 H126      -82.0539   23.5202  -74.7047 H         1 UNK         0.0793 
    127 H127      -82.3804   25.8874  -74.0806 H         1 UNK         0.2896 
@<TRIPOS>BOND
     1    1    2 1    
     2    1   67 1    
     3    1   68 1    
     4    1   69 1    
     5    2    3 2    
     6    2    4 am   BACKBONE|DICT|INTERRES
     7    4    5 1    
     8    4   70 1    
     9    5    6 1    
    10    5   65 1    
    11    5   71 1    
    12    6    7 1    
    13    6   72 1    
    14    6   73 1    
    15    7    8 1    
    16    8    9 1    
    17    8   74 1    
    18    8   75 1    
    19    9   10 ar   
    20    9   14 ar   
    21   10   11 ar   
    22   10   76 1    
    23   11   12 ar   
    24   11   48 1    
    25   12   13 ar   
    26   12   77 1    
    27   13   14 ar   
    28   13   15 1    
    29   14   78 1    
    30   15   16 1    
    31   15   79 1    
    32   15   80 1    
    33   16   17 1    
    34   17   18 1    
    35   17   81 1    
    36   17   82 1    
    37   18   19 1    
    38   18   22 1    
    39   18   83 1    
    40   19   20 am   BACKBONE|DICT|INTERRES
    41   19   21 2    
    42   20   84 1    
    43   20   85 1    
    44   22   23 am   BACKBONE|DICT|INTERRES
    45   22   86 1    
    46   23   24 2    
    47   23   25 1    
    48   25   26 1    
    49   25   27 1    
    50   25   87 1    
    51   26   88 1    
    52   26   89 1    
    53   26   90 1    
    54   27   28 am   BACKBONE|DICT|INTERRES
    55   27   91 1    
    56   28   29 2    
    57   28   30 1    
    58   30   31 1    
    59   30   32 1    
    60   30   92 1    
    61   31   93 1    
    62   31   94 1    
    63   31   95 1    
    64   32   33 am   BACKBONE|DICT|INTERRES
    65   32   96 1    
    66   33   34 2    
    67   33   35 1    
    68   35   36 1    
    69   35   37 1    
    70   35   97 1    
    71   36   98 1    
    72   36   99 1    
    73   36  100 1    
    74   37   38 am   BACKBONE|DICT|INTERRES
    75   37  101 1    
    76   38   39 2    
    77   38   40 1    
    78   40   41 1    
    79   40   42 1    
    80   40  102 1    
    81   41  103 1    
    82   41  104 1    
    83   41  105 1    
    84   42   43 am   BACKBONE|DICT|INTERRES
    85   42  106 1    
    86   43   44 2    
    87   43   45 1    
    88   45   46 1    
    89   45   49 1    
    90   45  107 1    
    91   46   47 1    
    92   46  108 1    
    93   46  109 1    
    94   47   48 1    
    95   48  110 1    
    96   48  111 1    
    97   49   50 am   BACKBONE|DICT|INTERRES
    98   49  112 1    
    99   50   51 2    
   100   50   52 1    
   101   52   53 1    
   102   52   54 1    
   103   52  113 1    
   104   53  114 1    
   105   53  115 1    
   106   53  116 1    
   107   54   55 am   BACKBONE|DICT|INTERRES
   108   54  117 1    
   109   55   56 2    
   110   55   57 1    
   111   57   58 1    
   112   57   59 1    
   113   57  118 1    
   114   58  119 1    
   115   58  120 1    
   116   58  121 1    
   117   59   60 am   BACKBONE|DICT|INTERRES
   118   59  122 1    
   119   60   61 2    
   120   60   62 1    
   121   62   63 1    
   122   62   64 1    
   123   62  123 1    
   124   63  124 1    
   125   63  125 1    
   126   63  126 1    
   127   64   65 am   BACKBONE|DICT|INTERRES
   128   64  127 1    
   129   65   66 2    
@<TRIPOS>SUBSTRUCTURE
     1 UNK         1 GROUP             0       ****    0 ROOT    
