@<TRIPOS>MOLECULE
3R135
127   129    1
SMALL
USER_CHARGES


@<TRIPOS>ATOM
      1 CA        -85.2363   28.1005  -74.0345 C.3       0 UNK        -0.1998 
      2 C         -84.9357   28.5987  -75.4464 C.2       0 UNK         0.4909 
      3 O         -85.8737   28.8938  -76.1853 O.2       0 UNK        -0.5240 
      4 N         -83.6716   28.7295  -75.8769 N.am      1 UNK        -0.4739 
      5 CA        -82.4163   28.3864  -75.1934 C.3       1 UNK         0.0864 
      6 C6        -82.1895   29.1886  -73.8790 C.3       11 UNK        -0.0881 
      7 S7        -80.4208   29.4860  -73.5497 S.3       11 UNK        -0.2682 
      8 C8        -80.4411   29.8144  -71.7612 C.3       11 UNK         0.0289 
      9 C9        -79.1070   29.4363  -71.1428 C.ar      11 UNK        -0.0687 
     10 C10       -78.8862   28.1211  -70.7287 C.ar      11 UNK        -0.0823 
     11 C11       -77.6515   27.7430  -70.1964 C.ar      11 UNK        -0.0830 
     12 C12       -76.6450   28.7013  -70.0420 C.ar      11 UNK        -0.1021 
     13 C13       -76.8452   30.0140  -70.4801 C.ar      11 UNK        -0.0753 
     14 C14       -78.0827   30.3796  -71.0203 C.ar      11 UNK        -0.0933 
     15 C15       -75.7128   31.0272  -70.4126 C.3       11 UNK         0.0166 
     16 S16       -74.6894   30.9729  -71.9209 S.3       11 UNK        -0.2615 
     17 C17       -73.6888   29.4736  -71.6315 C.3       11 UNK        -0.0865 
     18 CA        -72.3425   29.5092  -72.3966 C.3       10 UNK         0.0862 
     19 C         -71.3984   28.3843  -71.9024 C.2       10 UNK         0.5551 
     20 N         -70.3141   28.7306  -71.2231 N.am      10 UNK        -0.7319 
     21 O         -71.6679   27.2009  -72.0936 O.2       10 UNK        -0.5018 
     22 N         -72.5377   29.3883  -73.8462 N.am      10 UNK        -0.4509 
     23 C         -71.7108   29.8971  -74.7662 C.2       10 UNK         0.4899 
     24 O         -70.7685   30.6486  -74.5079 O.2       10 UNK        -0.4839 
     25 CA        -71.9811   29.4559  -76.2159 C.3       9 UNK         0.0222 
     26 CB        -71.0548   30.1318  -77.2492 C.3       9 UNK        -0.1966 
     27 N         -71.9416   27.9949  -76.3390 N.am      9 UNK        -0.4218 
     28 C         -70.9052   27.1740  -76.1063 C.2       9 UNK         0.5020 
     29 O         -69.7660   27.5557  -75.8345 O.2       9 UNK        -0.5274 
     30 CA        -71.1784   25.6591  -76.1735 C.3       8 UNK         0.0270 
     31 CB        -71.2894   25.0754  -74.7563 C.3       8 UNK        -0.1976 
     32 N         -72.3821   25.3062  -76.9323 N.am      8 UNK        -0.4313 
     33 C         -72.4899   25.3892  -78.2658 C.2       8 UNK         0.5041 
     34 O         -71.5664   25.7256  -79.0083 O.2       8 UNK        -0.5577 
     35 CA        -73.8639   25.0623  -78.8737 C.3       7 UNK         0.0284 
     36 CB        -74.0531   23.5422  -79.0022 C.3       7 UNK        -0.1958 
     37 N         -74.9758   25.6402  -78.1129 N.am      7 UNK        -0.4454 
     38 C         -75.2122   26.9552  -77.9903 C.2       7 UNK         0.5089 
     39 O         -74.5374   27.8277  -78.5362 O.2       7 UNK        -0.5125 
     40 CA        -76.3716   27.3732  -77.0699 C.3       6 UNK         0.0408 
     41 CB        -77.7255   27.2156  -77.7791 C.3       6 UNK        -0.1791 
     42 N         -76.3810   26.6260  -75.8121 N.am      6 UNK        -0.4762 
     43 C         -75.4238   26.7000  -74.8763 C.2       6 UNK         0.5007 
     44 O         -74.4620   27.4660  -74.9402 O.2       6 UNK        -0.5032 
     45 CA        -75.5339   25.7387  -73.6796 C.3       5 UNK         0.0783 
     46 C46       -76.4029   26.3532  -72.5635 C.3       11 UNK        -0.0857 
     47 S47       -76.1226   25.5291  -70.9572 S.3       11 UNK        -0.2512 
     48 C48       -77.3841   26.2808  -69.8669 C.3       11 UNK         0.0225 
     49 N         -76.0170   24.4163  -74.0829 N.am      5 UNK        -0.4615 
     50 C         -75.3325   23.5591  -74.8494 C.2       4 UNK         0.5053 
     51 O         -74.2091   23.7847  -75.2974 O.2       4 UNK        -0.5105 
     52 CA        -76.0450   22.2467  -75.2111 C.3       4 UNK         0.0263 
     53 CB        -76.0104   21.2630  -74.0306 C.3       4 UNK        -0.1981 
     54 N         -77.4301   22.4606  -75.6395 N.am      4 UNK        -0.4224 
     55 C         -77.7781   23.1273  -76.7491 C.2       3 UNK         0.4895 
     56 O         -76.9705   23.6221  -77.5347 O.2       3 UNK        -0.5091 
     57 CA        -79.2816   23.3010  -77.0156 C.3       3 UNK         0.0250 
     58 CB        -79.8611   22.0413  -77.6791 C.3       3 UNK        -0.1996 
     59 N         -80.0795   23.6477  -75.8332 N.am      3 UNK        -0.4254 
     60 C         -79.8757   24.7200  -75.0555 C.2       2 UNK         0.5004 
     61 O         -78.9010   25.4682  -75.1507 O.2       2 UNK        -0.5226 
     62 CA        -80.9414   25.0236  -73.9930 C.3       2 UNK         0.0269 
     63 CB        -80.3894   24.7924  -72.5770 C.3       2 UNK        -0.1926 
     64 N         -81.3732   26.4156  -74.1288 N.am      2 UNK        -0.4687 
     65 C         -82.2150   26.8551  -75.0736 C.2       1 UNK         0.5165 
     66 O         -82.8096   26.0989  -75.8463 O.2       1 UNK        -0.5079 
     67 H67       -86.2845   27.8135  -73.9525 H         1 UNK         0.0900 
     68 H68       -84.6442   27.2273  -73.7683 H         1 UNK         0.0900 
     69 H69       -85.0541   28.8892  -73.3057 H         1 UNK         0.0900 
     70 H70       -83.5423   29.0426  -76.8290 H         1 UNK         0.2959 
     71 H71       -81.6473   28.7018  -75.9011 H         1 UNK         0.1079 
     72 H72       -82.6651   30.1685  -73.9485 H         1 UNK         0.0837 
     73 H73       -82.6522   28.6894  -73.0264 H         1 UNK         0.0837 
     74 H74       -81.2377   29.2476  -71.2773 H         1 UNK         0.0685 
     75 H75       -80.6626   30.8687  -71.5881 H         1 UNK         0.0685 
     76 H76       -79.6684   27.3854  -70.8544 H         1 UNK         0.1434 
     77 H77       -75.6852   28.4064  -69.6405 H         1 UNK         0.1329 
     78 H78       -78.2400   31.3910  -71.3695 H         1 UNK         0.1335 
     79 H79       -76.1226   32.0326  -70.3044 H         1 UNK         0.0680 
     80 H80       -75.0948   30.8561  -69.5299 H         1 UNK         0.0680 
     81 H81       -74.2672   28.5929  -71.9115 H         1 UNK         0.1032 
     82 H82       -73.5051   29.3890  -70.5587 H         1 UNK         0.1032 
     83 H83       -71.8706   30.4711  -72.1837 H         1 UNK         0.0461 
     84 H84       -70.0887   29.6997  -71.0601 H         1 UNK         0.3453 
     85 H85       -69.6991   28.0087  -70.8816 H         1 UNK         0.3453 
     86 H86       -73.2555   28.7362  -74.1512 H         1 UNK         0.2984 
     87 H87       -73.0049   29.7534  -76.4481 H         1 UNK         0.0554 
     88 H88       -71.1654   31.2163  -77.2176 H         1 UNK         0.0847 
     89 H89       -71.2933   29.8102  -78.2630 H         1 UNK         0.0847 
     90 H90       -70.0035   29.9090  -77.0652 H         1 UNK         0.0847 
     91 H91       -72.8431   27.5597  -76.4909 H         1 UNK         0.3141 
     92 H92       -70.3201   25.1958  -76.6648 H         1 UNK         0.0743 
     93 H93       -70.4024   25.3063  -74.1647 H         1 UNK         0.0784 
     94 H94       -72.1494   25.4822  -74.2231 H         1 UNK         0.0784 
     95 H95       -71.3919   23.9904  -74.7793 H         1 UNK         0.0784 
     96 H96       -73.1662   24.9368  -76.3977 H         1 UNK         0.3213 
     97 H97       -73.8904   25.4923  -79.8773 H         1 UNK         0.0855 
     98 H98       -74.0812   23.0540  -78.0273 H         1 UNK         0.0814 
     99 H99       -73.2377   23.0929  -79.5705 H         1 UNK         0.0814 
    100 H100      -74.9809   23.3019  -79.5216 H         1 UNK         0.0814 
    101 H101      -75.6189   24.9839  -77.6758 H         1 UNK         0.3105 
    102 H102      -76.2403   28.4295  -76.8260 H         1 UNK         0.0547 
    103 H103      -77.9272   26.1767  -78.0402 H         1 UNK         0.0837 
    104 H104      -77.7523   27.7959  -78.7021 H         1 UNK         0.0837 
    105 H105      -78.5444   27.5658  -77.1503 H         1 UNK         0.0837 
    106 H106      -77.1846   26.0237  -75.6420 H         1 UNK         0.3020 
    107 H107      -74.5182   25.6172  -73.2946 H         1 UNK         0.1245 
    108 H108      -77.4603   26.3105  -72.8260 H         1 UNK         0.0781 
    109 H109      -76.1677   27.4111  -72.4428 H         1 UNK         0.0781 
    110 H110      -77.0558   26.1961  -68.8301 H         1 UNK         0.0836 
    111 H111      -78.3012   25.6948  -69.9444 H         1 UNK         0.0836 
    112 H112      -76.9513   24.1724  -73.7915 H         1 UNK         0.3022 
    113 H113      -75.5024   21.7962  -76.0452 H         1 UNK         0.0747 
    114 H114      -76.4353   20.2977  -74.3066 H         1 UNK         0.0793 
    115 H115      -74.9848   21.0822  -73.7053 H         1 UNK         0.0793 
    116 H116      -76.5634   21.6398  -73.1692 H         1 UNK         0.0793 
    117 H117      -78.1612   22.0912  -75.0493 H         1 UNK         0.3047 
    118 H118      -79.3858   24.1280  -77.7209 H         1 UNK         0.0822 
    119 H119      -80.8937   22.1966  -77.9926 H         1 UNK         0.0807 
    120 H120      -79.8390   21.1818  -77.0079 H         1 UNK         0.0807 
    121 H121      -79.2923   21.7730  -78.5709 H         1 UNK         0.0807 
    122 H122      -80.9045   23.0868  -75.6745 H         1 UNK         0.2946 
    123 H123      -81.8021   24.3668  -74.1401 H         1 UNK         0.1144 
    124 H124      -81.1480   24.9905  -71.8197 H         1 UNK         0.0793 
    125 H125      -79.5329   25.4310  -72.3659 H         1 UNK         0.0793 
    126 H126      -80.0650   23.7590  -72.4477 H         1 UNK         0.0793 
    127 H127      -80.8665   27.1040  -73.5879 H         1 UNK         0.2896 
@<TRIPOS>BOND
     1    1    2 1    
     2    1   67 1    
     3    1   68 1    
     4    1   69 1    
     5    2    3 2    
     6    2    4 am   BACKBONE|DICT|INTERRES
     7    4    5 1    
     8    4   70 1    
     9    5    6 1    
    10    5   65 1    
    11    5   71 1    
    12    6    7 1    
    13    6   72 1    
    14    6   73 1    
    15    7    8 1    
    16    8    9 1    
    17    8   74 1    
    18    8   75 1    
    19    9   10 ar   
    20    9   14 ar   
    21   10   11 ar   
    22   10   76 1    
    23   11   12 ar   
    24   11   48 1    
    25   12   13 ar   
    26   12   77 1    
    27   13   14 ar   
    28   13   15 1    
    29   14   78 1    
    30   15   16 1    
    31   15   79 1    
    32   15   80 1    
    33   16   17 1    
    34   17   18 1    
    35   17   81 1    
    36   17   82 1    
    37   18   19 1    
    38   18   22 1    
    39   18   83 1    
    40   19   20 am   BACKBONE|DICT|INTERRES
    41   19   21 2    
    42   20   84 1    
    43   20   85 1    
    44   22   23 am   BACKBONE|DICT|INTERRES
    45   22   86 1    
    46   23   24 2    
    47   23   25 1    
    48   25   26 1    
    49   25   27 1    
    50   25   87 1    
    51   26   88 1    
    52   26   89 1    
    53   26   90 1    
    54   27   28 am   BACKBONE|DICT|INTERRES
    55   27   91 1    
    56   28   29 2    
    57   28   30 1    
    58   30   31 1    
    59   30   32 1    
    60   30   92 1    
    61   31   93 1    
    62   31   94 1    
    63   31   95 1    
    64   32   33 am   BACKBONE|DICT|INTERRES
    65   32   96 1    
    66   33   34 2    
    67   33   35 1    
    68   35   36 1    
    69   35   37 1    
    70   35   97 1    
    71   36   98 1    
    72   36   99 1    
    73   36  100 1    
    74   37   38 am   BACKBONE|DICT|INTERRES
    75   37  101 1    
    76   38   39 2    
    77   38   40 1    
    78   40   41 1    
    79   40   42 1    
    80   40  102 1    
    81   41  103 1    
    82   41  104 1    
    83   41  105 1    
    84   42   43 am   BACKBONE|DICT|INTERRES
    85   42  106 1    
    86   43   44 2    
    87   43   45 1    
    88   45   46 1    
    89   45   49 1    
    90   45  107 1    
    91   46   47 1    
    92   46  108 1    
    93   46  109 1    
    94   47   48 1    
    95   48  110 1    
    96   48  111 1    
    97   49   50 am   BACKBONE|DICT|INTERRES
    98   49  112 1    
    99   50   51 2    
   100   50   52 1    
   101   52   53 1    
   102   52   54 1    
   103   52  113 1    
   104   53  114 1    
   105   53  115 1    
   106   53  116 1    
   107   54   55 am   BACKBONE|DICT|INTERRES
   108   54  117 1    
   109   55   56 2    
   110   55   57 1    
   111   57   58 1    
   112   57   59 1    
   113   57  118 1    
   114   58  119 1    
   115   58  120 1    
   116   58  121 1    
   117   59   60 am   BACKBONE|DICT|INTERRES
   118   59  122 1    
   119   60   61 2    
   120   60   62 1    
   121   62   63 1    
   122   62   64 1    
   123   62  123 1    
   124   63  124 1    
   125   63  125 1    
   126   63  126 1    
   127   64   65 am   BACKBONE|DICT|INTERRES
   128   64  127 1    
   129   65   66 2    
@<TRIPOS>SUBSTRUCTURE
     1 UNK         1 GROUP             0       ****    0 ROOT    
