@<TRIPOS>MOLECULE
3R135
127   129    1
SMALL
USER_CHARGES


@<TRIPOS>ATOM
      1 CA        -84.5740   24.6840  -69.1363 C.3       0 UNK        -0.1998 
      2 C         -84.3176   25.6890  -70.2490 C.2       0 UNK         0.4909 
      3 O         -85.2372   26.0221  -70.9971 O.2       0 UNK        -0.5240 
      4 N         -83.0754   26.1771  -70.3597 N.am      1 UNK        -0.4739 
      5 CA        -82.6197   27.1152  -71.3941 C.3       1 UNK         0.0864 
      6 C6        -81.2565   27.7608  -71.0326 C.3       11 UNK        -0.0881 
      7 S7        -79.9750   26.5939  -70.4314 S.3       11 UNK        -0.2682 
      8 C8        -78.8542   26.4083  -71.8557 C.3       11 UNK         0.0289 
      9 C9        -78.1872   27.7189  -72.2429 C.ar      11 UNK        -0.0687 
     10 C10       -78.6662   28.4441  -73.3356 C.ar      11 UNK        -0.0823 
     11 C11       -78.0724   29.6540  -73.7007 C.ar      11 UNK        -0.0830 
     12 C12       -76.9957   30.1436  -72.9578 C.ar      11 UNK        -0.1021 
     13 C13       -76.4938   29.4195  -71.8719 C.ar      11 UNK        -0.0753 
     14 C14       -77.0932   28.2050  -71.5198 C.ar      11 UNK        -0.0933 
     15 C15       -75.3147   29.9553  -71.0718 C.3       11 UNK         0.0166 
     16 S16       -73.7217   29.4577  -71.7993 S.3       11 UNK        -0.2615 
     17 C17       -73.6047   30.5733  -73.2461 C.3       11 UNK        -0.0865 
     18 CA        -72.1654   31.0594  -73.5641 C.3       10 UNK         0.0862 
     19 C         -71.6307   32.0813  -72.5196 C.2       10 UNK         0.5551 
     20 N         -72.1185   33.3141  -72.5599 N.am      10 UNK        -0.7319 
     21 O         -70.8015   31.7690  -71.6661 O.2       10 UNK        -0.5018 
     22 N         -71.2660   29.9221  -73.7832 N.am      10 UNK        -0.4509 
     23 C         -70.0809   29.9704  -74.4035 C.2       10 UNK         0.4899 
     24 O         -69.6176   30.9888  -74.9186 O.2       10 UNK        -0.4839 
     25 CA        -69.2703   28.6598  -74.4724 C.3       9 UNK         0.0222 
     26 CB        -68.1025   28.7015  -73.4728 C.3       9 UNK        -0.1966 
     27 N         -70.0713   27.4544  -74.2252 N.am      9 UNK        -0.4218 
     28 C         -71.0032   26.9711  -75.0582 C.2       9 UNK         0.5020 
     29 O         -71.2615   27.4636  -76.1592 O.2       9 UNK        -0.5274 
     30 CA        -71.8083   25.7715  -74.5296 C.3       8 UNK         0.0270 
     31 CB        -72.8643   26.2398  -73.5126 C.3       8 UNK        -0.1976 
     32 N         -72.4891   25.0398  -75.5960 N.am      8 UNK        -0.4313 
     33 C         -71.8940   24.2692  -76.5145 C.2       8 UNK         0.5041 
     34 O         -70.6817   24.0505  -76.5486 O.2       8 UNK        -0.5577 
     35 CA        -72.8084   23.6142  -77.5603 C.3       7 UNK         0.0284 
     36 CB        -73.4536   22.3403  -76.9882 C.3       7 UNK        -0.1958 
     37 N         -73.8599   24.5277  -78.0140 N.am      7 UNK        -0.4454 
     38 C         -73.7671   25.3205  -79.0900 C.2       7 UNK         0.5089 
     39 O         -72.7756   25.3681  -79.8193 O.2       7 UNK        -0.5125 
     40 CA        -74.9919   26.1847  -79.4465 C.3       6 UNK         0.0408 
     41 CB        -75.7860   25.5326  -80.5901 C.3       6 UNK        -0.1791 
     42 N         -75.8965   26.4141  -78.3179 N.am      6 UNK        -0.4762 
     43 C         -75.6970   27.3323  -77.3585 C.2       6 UNK         0.5007 
     44 O         -74.7313   28.0948  -77.3344 O.2       6 UNK        -0.5032 
     45 CA        -76.7519   27.3954  -76.2275 C.3       5 UNK         0.0783 
     46 C46       -77.9350   28.3067  -76.6572 C.3       11 UNK        -0.0857 
     47 S47       -77.5915   30.0786  -76.3890 S.3       11 UNK        -0.2512 
     48 C48       -78.5866   30.4268  -74.9047 C.3       11 UNK         0.0225 
     49 N         -77.2420   26.0733  -75.8128 N.am      5 UNK        -0.4615 
     50 C         -76.5031   24.9851  -75.5479 C.2       4 UNK         0.5053 
     51 O         -75.2777   25.0004  -75.4569 O.2       4 UNK        -0.5105 
     52 CA        -77.2279   23.6272  -75.4552 C.3       4 UNK         0.0263 
     53 CB        -77.2838   23.1526  -73.9947 C.3       4 UNK        -0.1981 
     54 N         -78.5844   23.6188  -76.0118 N.am      4 UNK        -0.4224 
     55 C         -78.9588   23.9972  -77.2444 C.2       3 UNK         0.4895 
     56 O         -78.1607   24.2838  -78.1395 O.2       3 UNK        -0.5091 
     57 CA        -80.4724   24.1558  -77.5060 C.3       3 UNK         0.0250 
     58 CB        -80.9414   23.1489  -78.5692 C.3       3 UNK        -0.1996 
     59 N         -81.3367   24.0344  -76.3204 N.am      3 UNK        -0.4254 
     60 C         -81.3041   24.7989  -75.2165 C.2       2 UNK         0.5004 
     61 O         -80.5156   25.7350  -75.0616 O.2       2 UNK        -0.5226 
     62 CA        -82.2638   24.3686  -74.0867 C.3       2 UNK         0.0269 
     63 CB        -81.9714   22.9243  -73.6361 C.3       2 UNK        -0.1926 
     64 N         -82.2252   25.2169  -72.8930 N.am      2 UNK        -0.4687 
     65 C         -82.6259   26.4920  -72.8079 C.2       1 UNK         0.5165 
     66 O         -83.0444   27.1491  -73.7623 O.2       1 UNK        -0.5079 
     67 H67       -85.3473   25.0563  -68.4651 H         1 UNK         0.0900 
     68 H68       -84.9139   23.7378  -69.5567 H         1 UNK         0.0900 
     69 H69       -83.6780   24.4907  -68.5468 H         1 UNK         0.0900 
     70 H70       -82.3584   25.8744  -69.7144 H         1 UNK         0.2959 
     71 H71       -83.3534   27.9242  -71.4286 H         1 UNK         0.1079 
     72 H72       -80.8837   28.3628  -71.8599 H         1 UNK         0.0837 
     73 H73       -81.4190   28.4763  -70.2253 H         1 UNK         0.0837 
     74 H74       -78.0871   25.6747  -71.6046 H         1 UNK         0.0685 
     75 H75       -79.4060   25.9910  -72.6976 H         1 UNK         0.0685 
     76 H76       -79.5066   28.0621  -73.8997 H         1 UNK         0.1434 
     77 H77       -76.5438   31.0848  -73.2362 H         1 UNK         0.1329 
     78 H78       -76.7157   27.6418  -70.6774 H         1 UNK         0.1335 
     79 H79       -75.3665   31.0424  -70.9948 H         1 UNK         0.0680 
     80 H80       -75.3615   29.5788  -70.0488 H         1 UNK         0.0680 
     81 H81       -74.0092   30.0413  -74.1093 H         1 UNK         0.1032 
     82 H82       -74.2583   31.4343  -73.1031 H         1 UNK         0.1032 
     83 H83       -72.2166   31.5953  -74.5145 H         1 UNK         0.0461 
     84 H84       -72.7949   33.5879  -73.2554 H         1 UNK         0.3453 
     85 H85       -71.7922   33.9907  -71.8873 H         1 UNK         0.3453 
     86 H86       -71.5518   29.0561  -73.3532 H         1 UNK         0.2984 
     87 H87       -68.8540   28.5872  -75.4795 H         1 UNK         0.0554 
     88 H88       -67.4639   29.5670  -73.6554 H         1 UNK         0.0847 
     89 H89       -67.4732   27.8152  -73.5573 H         1 UNK         0.0847 
     90 H90       -68.4539   28.7703  -72.4424 H         1 UNK         0.0847 
     91 H91       -69.9237   26.9889  -73.3405 H         1 UNK         0.3141 
     92 H92       -71.1203   25.0835  -74.0338 H         1 UNK         0.0743 
     93 H93       -73.5637   26.9504  -73.9567 H         1 UNK         0.0784 
     94 H94       -73.4456   25.4008  -73.1289 H         1 UNK         0.0784 
     95 H95       -72.4019   26.7275  -72.6539 H         1 UNK         0.0784 
     96 H96       -73.5028   25.1361  -75.6268 H         1 UNK         0.3213 
     97 H97       -72.1870   23.3205  -78.4096 H         1 UNK         0.0855 
     98 H98       -74.0723   22.5526  -76.1155 H         1 UNK         0.0814 
     99 H99       -72.6905   21.6249  -76.6784 H         1 UNK         0.0814 
    100 H100      -74.0791   21.8445  -77.7308 H         1 UNK         0.0814 
    101 H101      -74.6783   24.6109  -77.4246 H         1 UNK         0.3105 
    102 H102      -74.6215   27.1492  -79.8010 H         1 UNK         0.0547 
    103 H103      -75.1529   25.3703  -81.4635 H         1 UNK         0.0837 
    104 H104      -76.1935   24.5638  -80.2972 H         1 UNK         0.0837 
    105 H105      -76.6168   26.1633  -80.9067 H         1 UNK         0.0837 
    106 H106      -76.7101   25.8088  -78.2565 H         1 UNK         0.3020 
    107 H107      -76.2643   27.8246  -75.3488 H         1 UNK         0.1245 
    108 H108      -78.8426   28.0458  -76.1129 H         1 UNK         0.0781 
    109 H109      -78.1967   28.1572  -77.7069 H         1 UNK         0.0781 
    110 H110      -79.6336   30.1889  -75.1002 H         1 UNK         0.0836 
    111 H111      -78.5522   31.4974  -74.6975 H         1 UNK         0.0836 
    112 H112      -78.2468   25.9568  -75.8190 H         1 UNK         0.3022 
    113 H113      -76.6386   22.9105  -76.0303 H         1 UNK         0.0747 
    114 H114      -77.6932   22.1448  -73.9193 H         1 UNK         0.0793 
    115 H115      -76.2864   23.1283  -73.5526 H         1 UNK         0.0793 
    116 H116      -77.8973   23.8121  -73.3799 H         1 UNK         0.0793 
    117 H117      -79.3252   23.4173  -75.3571 H         1 UNK         0.3047 
    118 H118      -80.6127   25.1626  -77.9045 H         1 UNK         0.0822 
    119 H119      -81.9826   23.3166  -78.8453 H         1 UNK         0.0807 
    120 H120      -80.8463   22.1201  -78.2198 H         1 UNK         0.0807 
    121 H121      -80.3505   23.2383  -79.4821 H         1 UNK         0.0807 
    122 H122      -82.0099   23.2820  -76.3522 H         1 UNK         0.2946 
    123 H123      -83.2776   24.4149  -74.4898 H         1 UNK         0.1144 
    124 H124      -82.6616   22.6077  -72.8536 H         1 UNK         0.0793 
    125 H125      -80.9582   22.8224  -73.2453 H         1 UNK         0.0793 
    126 H126      -82.0803   22.2109  -74.4534 H         1 UNK         0.0793 
    127 H127      -81.8895   24.7835  -72.0459 H         1 UNK         0.2896 
@<TRIPOS>BOND
     1    1    2 1    
     2    1   67 1    
     3    1   68 1    
     4    1   69 1    
     5    2    3 2    
     6    2    4 am   BACKBONE|DICT|INTERRES
     7    4    5 1    
     8    4   70 1    
     9    5    6 1    
    10    5   65 1    
    11    5   71 1    
    12    6    7 1    
    13    6   72 1    
    14    6   73 1    
    15    7    8 1    
    16    8    9 1    
    17    8   74 1    
    18    8   75 1    
    19    9   10 ar   
    20    9   14 ar   
    21   10   11 ar   
    22   10   76 1    
    23   11   12 ar   
    24   11   48 1    
    25   12   13 ar   
    26   12   77 1    
    27   13   14 ar   
    28   13   15 1    
    29   14   78 1    
    30   15   16 1    
    31   15   79 1    
    32   15   80 1    
    33   16   17 1    
    34   17   18 1    
    35   17   81 1    
    36   17   82 1    
    37   18   19 1    
    38   18   22 1    
    39   18   83 1    
    40   19   20 am   BACKBONE|DICT|INTERRES
    41   19   21 2    
    42   20   84 1    
    43   20   85 1    
    44   22   23 am   BACKBONE|DICT|INTERRES
    45   22   86 1    
    46   23   24 2    
    47   23   25 1    
    48   25   26 1    
    49   25   27 1    
    50   25   87 1    
    51   26   88 1    
    52   26   89 1    
    53   26   90 1    
    54   27   28 am   BACKBONE|DICT|INTERRES
    55   27   91 1    
    56   28   29 2    
    57   28   30 1    
    58   30   31 1    
    59   30   32 1    
    60   30   92 1    
    61   31   93 1    
    62   31   94 1    
    63   31   95 1    
    64   32   33 am   BACKBONE|DICT|INTERRES
    65   32   96 1    
    66   33   34 2    
    67   33   35 1    
    68   35   36 1    
    69   35   37 1    
    70   35   97 1    
    71   36   98 1    
    72   36   99 1    
    73   36  100 1    
    74   37   38 am   BACKBONE|DICT|INTERRES
    75   37  101 1    
    76   38   39 2    
    77   38   40 1    
    78   40   41 1    
    79   40   42 1    
    80   40  102 1    
    81   41  103 1    
    82   41  104 1    
    83   41  105 1    
    84   42   43 am   BACKBONE|DICT|INTERRES
    85   42  106 1    
    86   43   44 2    
    87   43   45 1    
    88   45   46 1    
    89   45   49 1    
    90   45  107 1    
    91   46   47 1    
    92   46  108 1    
    93   46  109 1    
    94   47   48 1    
    95   48  110 1    
    96   48  111 1    
    97   49   50 am   BACKBONE|DICT|INTERRES
    98   49  112 1    
    99   50   51 2    
   100   50   52 1    
   101   52   53 1    
   102   52   54 1    
   103   52  113 1    
   104   53  114 1    
   105   53  115 1    
   106   53  116 1    
   107   54   55 am   BACKBONE|DICT|INTERRES
   108   54  117 1    
   109   55   56 2    
   110   55   57 1    
   111   57   58 1    
   112   57   59 1    
   113   57  118 1    
   114   58  119 1    
   115   58  120 1    
   116   58  121 1    
   117   59   60 am   BACKBONE|DICT|INTERRES
   118   59  122 1    
   119   60   61 2    
   120   60   62 1    
   121   62   63 1    
   122   62   64 1    
   123   62  123 1    
   124   63  124 1    
   125   63  125 1    
   126   63  126 1    
   127   64   65 am   BACKBONE|DICT|INTERRES
   128   64  127 1    
   129   65   66 2    
@<TRIPOS>SUBSTRUCTURE
     1 UNK         1 GROUP             0       ****    0 ROOT    
