@<TRIPOS>MOLECULE
3R135
127   129    1
SMALL
USER_CHARGES


@<TRIPOS>ATOM
      1 CA        -80.9562   23.7415  -71.8645 C.3       0 UNK        -0.1998 
      2 C         -81.4602   24.8296  -72.7999 C.2       0 UNK         0.4909 
      3 O         -82.2654   24.5485  -73.6876 O.2       0 UNK        -0.5240 
      4 N         -80.9976   26.0705  -72.6015 N.am      1 UNK        -0.4739 
      5 CA        -81.3252   27.2373  -73.4282 C.3       1 UNK         0.0864 
      6 C6        -80.8247   28.5610  -72.7952 C.3       11 UNK        -0.0881 
      7 S7        -81.4631   28.8028  -71.0971 S.3       11 UNK        -0.2682 
      8 C8        -80.2816   29.9953  -70.3731 C.3       11 UNK         0.0289 
      9 C9        -78.8297   29.5474  -70.4915 C.ar      11 UNK        -0.0687 
     10 C10       -78.4273   28.3000  -70.0023 C.ar      11 UNK        -0.0823 
     11 C11       -77.1225   27.8456  -70.2133 C.ar      11 UNK        -0.0830 
     12 C12       -76.2018   28.6714  -70.8643 C.ar      11 UNK        -0.1021 
     13 C13       -76.5852   29.9271  -71.3394 C.ar      11 UNK        -0.0753 
     14 C14       -77.8990   30.3629  -71.1441 C.ar      11 UNK        -0.0933 
     15 C15       -75.5983   30.7864  -72.1143 C.3       11 UNK         0.0166 
     16 S16       -75.9402   30.6868  -73.8967 S.3       11 UNK        -0.2615 
     17 C17       -74.5584   31.6447  -74.6055 C.3       11 UNK        -0.0865 
     18 CA        -73.6654   30.7899  -75.5552 C.3       10 UNK         0.0862 
     19 C         -72.6837   31.6547  -76.4059 C.2       10 UNK         0.5551 
     20 N         -71.5188   31.1453  -76.7882 N.am      10 UNK        -0.7319 
     21 O         -72.9896   32.7935  -76.7522 O.2       10 UNK        -0.5018 
     22 N         -73.0413   29.6298  -74.8856 N.am      10 UNK        -0.4509 
     23 C         -72.1339   29.6980  -73.9018 C.2       10 UNK         0.4899 
     24 O         -71.7202   30.7568  -73.4282 O.2       10 UNK        -0.4839 
     25 CA        -71.5751   28.3845  -73.3356 C.3       9 UNK         0.0222 
     26 CB        -72.1702   28.1111  -71.9448 C.3       9 UNK        -0.1966 
     27 N         -71.8261   27.2141  -74.1832 N.am      9 UNK        -0.4218 
     28 C         -70.8652   26.4872  -74.7689 C.2       9 UNK         0.5020 
     29 O         -69.6833   26.8304  -74.8290 O.2       9 UNK        -0.5274 
     30 CA        -71.2671   25.1143  -75.3285 C.3       8 UNK         0.0270 
     31 CB        -71.4818   24.1141  -74.1799 C.3       8 UNK        -0.1976 
     32 N         -72.4610   25.1534  -76.1728 N.am      8 UNK        -0.4313 
     33 C         -72.4472   25.4739  -77.4736 C.2       8 UNK         0.5041 
     34 O         -71.4352   25.8246  -78.0826 O.2       8 UNK        -0.5577 
     35 CA        -73.7818   25.3720  -78.2348 C.3       7 UNK         0.0284 
     36 CB        -74.1001   23.9109  -78.5893 C.3       7 UNK        -0.1958 
     37 N         -74.9036   25.9612  -77.5025 N.am      7 UNK        -0.4454 
     38 C         -75.0106   27.2683  -77.2305 C.2       7 UNK         0.5089 
     39 O         -74.2026   28.1154  -77.6099 O.2       7 UNK        -0.5125 
     40 CA        -76.2031   27.7090  -76.3674 C.3       6 UNK         0.0408 
     41 CB        -77.4313   27.9916  -77.2438 C.3       6 UNK        -0.1791 
     42 N         -76.5508   26.7586  -75.3084 N.am      6 UNK        -0.4762 
     43 C         -75.7276   26.3838  -74.3181 C.2       6 UNK         0.5007 
     44 O         -74.5796   26.8081  -74.1813 O.2       6 UNK        -0.5032 
     45 CA        -76.2591   25.3123  -73.3455 C.3       5 UNK         0.0783 
     46 C46       -77.4790   25.8395  -72.5535 C.3       11 UNK        -0.0857 
     47 S47       -77.5835   25.1663  -70.8590 S.3       11 UNK        -0.2512 
     48 C48       -76.7299   26.4235  -69.8382 C.3       11 UNK         0.0225 
     49 N         -76.5873   24.0680  -74.0487 N.am      5 UNK        -0.4615 
     50 C         -75.7587   23.3547  -74.8223 C.2       4 UNK         0.5053 
     51 O         -74.5654   23.6090  -74.9732 O.2       4 UNK        -0.5105 
     52 CA        -76.3820   22.1837  -75.6022 C.3       4 UNK         0.0263 
     53 CB        -76.3524   20.9013  -74.7561 C.3       4 UNK        -0.1981 
     54 N         -77.7535   22.4354  -76.0632 N.am      4 UNK        -0.4224 
     55 C         -78.1387   23.4510  -76.8513 C.2       3 UNK         0.4895 
     56 O         -77.3664   24.3142  -77.2749 O.2       3 UNK        -0.5091 
     57 CA        -79.6301   23.5386  -77.2147 C.3       3 UNK         0.0250 
     58 CB        -80.5457   22.5946  -76.4033 C.3       3 UNK        -0.1996 
     59 N         -80.0584   24.9210  -77.0352 N.am      3 UNK        -0.4254 
     60 C         -81.0453   25.5460  -77.6813 C.2       2 UNK         0.5004 
     61 O         -81.7556   25.0049  -78.5312 O.2       2 UNK        -0.5226 
     62 CA        -81.2791   27.0240  -77.2944 C.3       2 UNK         0.0269 
     63 CB        -82.3813   27.6896  -78.1400 C.3       2 UNK        -0.1926 
     64 N         -81.6073   27.1961  -75.8734 N.am      2 UNK        -0.4687 
     65 C         -80.7523   27.0623  -74.8499 C.2       1 UNK         0.5165 
     66 O         -79.5545   26.7981  -74.9946 O.2       1 UNK        -0.5079 
     67 H67       -81.7845   23.1163  -71.5323 H         1 UNK         0.0900 
     68 H68       -80.4764   24.1591  -70.9798 H         1 UNK         0.0900 
     69 H69       -80.2345   23.1081  -72.3793 H         1 UNK         0.0900 
     70 H70       -80.3429   26.2454  -71.8529 H         1 UNK         0.2959 
     71 H71       -82.4140   27.2880  -73.4978 H         1 UNK         0.1079 
     72 H72       -79.7335   28.5755  -72.7837 H         1 UNK         0.0837 
     73 H73       -81.1339   29.4163  -73.3989 H         1 UNK         0.0837 
     74 H74       -80.4290   30.9628  -70.8555 H         1 UNK         0.0685 
     75 H75       -80.5238   30.1367  -69.3190 H         1 UNK         0.0685 
     76 H76       -79.1481   27.6546  -69.5188 H         1 UNK         0.1434 
     77 H77       -75.1986   28.3164  -71.0448 H         1 UNK         0.1329 
     78 H78       -78.2032   31.3230  -71.5382 H         1 UNK         0.1335 
     79 H79       -74.5736   30.4633  -71.9229 H         1 UNK         0.0680 
     80 H80       -75.6689   31.8241  -71.7850 H         1 UNK         0.0680 
     81 H81       -73.9621   32.0973  -73.8122 H         1 UNK         0.1032 
     82 H82       -75.0053   32.4784  -75.1497 H         1 UNK         0.1032 
     83 H83       -74.3349   30.3650  -76.3012 H         1 UNK         0.0461 
     84 H84       -70.8923   31.7034  -77.3462 H         1 UNK         0.3453 
     85 H85       -71.2667   30.2054  -76.5279 H         1 UNK         0.3453 
     86 H86       -73.3313   28.7219  -75.2205 H         1 UNK         0.2984 
     87 H87       -70.5018   28.5382  -73.2075 H         1 UNK         0.0554 
     88 H88       -71.6825   27.2614  -71.4669 H         1 UNK         0.0847 
     89 H89       -73.2346   27.8914  -72.0076 H         1 UNK         0.0847 
     90 H90       -72.0478   28.9695  -71.2827 H         1 UNK         0.0847 
     91 H91       -72.7909   26.8833  -74.2108 H         1 UNK         0.3141 
     92 H92       -70.4313   24.7456  -75.9275 H         1 UNK         0.0743 
     93 H93       -70.5938   24.0443  -73.5502 H         1 UNK         0.0784 
     94 H94       -72.3152   24.4051  -73.5390 H         1 UNK         0.0784 
     95 H95       -71.6892   23.1137  -74.5605 H         1 UNK         0.0784 
     96 H96       -73.3280   24.8219  -75.7540 H         1 UNK         0.3213 
     97 H97       -73.6722   25.9270  -79.1692 H         1 UNK         0.0855 
     98 H98       -73.3131   23.4826  -79.2113 H         1 UNK         0.0814 
     99 H99       -75.0347   23.8297  -79.1447 H         1 UNK         0.0814 
    100 H100      -74.1834   23.2885  -77.6991 H         1 UNK         0.0814 
    101 H101      -75.6506   25.3406  -77.2026 H         1 UNK         0.3105 
    102 H102      -75.9202   28.6415  -75.8820 H         1 UNK         0.0547 
    103 H103      -77.1832   28.6746  -78.0573 H         1 UNK         0.0837 
    104 H104      -77.8260   27.0787  -77.6910 H         1 UNK         0.0837 
    105 H105      -78.2252   28.4609  -76.6635 H         1 UNK         0.0837 
    106 H106      -77.4988   26.4023  -75.3170 H         1 UNK         0.3020 
    107 H107      -75.4438   25.0962  -72.6515 H         1 UNK         0.1245 
    108 H108      -78.3962   25.5542  -73.0651 H         1 UNK         0.0781 
    109 H109      -77.5201   26.9278  -72.5335 H         1 UNK         0.0781 
    110 H110      -75.6527   26.2821  -69.9391 H         1 UNK         0.0836 
    111 H111      -76.9629   26.2475  -68.7872 H         1 UNK         0.0836 
    112 H112      -77.5465   23.7644  -73.9869 H         1 UNK         0.3022 
    113 H113      -75.7686   22.0179  -76.4892 H         1 UNK         0.0747 
    114 H114      -76.6946   20.0390  -75.3288 H         1 UNK         0.0793 
    115 H115      -75.3384   20.6808  -74.4187 H         1 UNK         0.0793 
    116 H116      -76.9798   20.9866  -73.8679 H         1 UNK         0.0793 
    117 H117      -78.4561   21.7737  -75.7664 H         1 UNK         0.3047 
    118 H118      -79.7079   23.2799  -78.2726 H         1 UNK         0.0822 
    119 H119      -81.5887   22.7136  -76.6978 H         1 UNK         0.0807 
    120 H120      -80.4880   22.7932  -75.3322 H         1 UNK         0.0807 
    121 H121      -80.2930   21.5469  -76.5706 H         1 UNK         0.0807 
    122 H122      -79.5429   25.4590  -76.3445 H         1 UNK         0.2946 
    123 H123      -80.3476   27.5543  -77.4992 H         1 UNK         0.1144 
    124 H124      -82.4794   28.7489  -77.9020 H         1 UNK         0.0793 
    125 H125      -83.3521   27.2179  -77.9823 H         1 UNK         0.0793 
    126 H126      -82.1536   27.6199  -79.2046 H         1 UNK         0.0793 
    127 H127      -82.5801   27.3718  -75.6663 H         1 UNK         0.2896 
@<TRIPOS>BOND
     1    1    2 1    
     2    1   67 1    
     3    1   68 1    
     4    1   69 1    
     5    2    3 2    
     6    2    4 am   BACKBONE|DICT|INTERRES
     7    4    5 1    
     8    4   70 1    
     9    5    6 1    
    10    5   65 1    
    11    5   71 1    
    12    6    7 1    
    13    6   72 1    
    14    6   73 1    
    15    7    8 1    
    16    8    9 1    
    17    8   74 1    
    18    8   75 1    
    19    9   10 ar   
    20    9   14 ar   
    21   10   11 ar   
    22   10   76 1    
    23   11   12 ar   
    24   11   48 1    
    25   12   13 ar   
    26   12   77 1    
    27   13   14 ar   
    28   13   15 1    
    29   14   78 1    
    30   15   16 1    
    31   15   79 1    
    32   15   80 1    
    33   16   17 1    
    34   17   18 1    
    35   17   81 1    
    36   17   82 1    
    37   18   19 1    
    38   18   22 1    
    39   18   83 1    
    40   19   20 am   BACKBONE|DICT|INTERRES
    41   19   21 2    
    42   20   84 1    
    43   20   85 1    
    44   22   23 am   BACKBONE|DICT|INTERRES
    45   22   86 1    
    46   23   24 2    
    47   23   25 1    
    48   25   26 1    
    49   25   27 1    
    50   25   87 1    
    51   26   88 1    
    52   26   89 1    
    53   26   90 1    
    54   27   28 am   BACKBONE|DICT|INTERRES
    55   27   91 1    
    56   28   29 2    
    57   28   30 1    
    58   30   31 1    
    59   30   32 1    
    60   30   92 1    
    61   31   93 1    
    62   31   94 1    
    63   31   95 1    
    64   32   33 am   BACKBONE|DICT|INTERRES
    65   32   96 1    
    66   33   34 2    
    67   33   35 1    
    68   35   36 1    
    69   35   37 1    
    70   35   97 1    
    71   36   98 1    
    72   36   99 1    
    73   36  100 1    
    74   37   38 am   BACKBONE|DICT|INTERRES
    75   37  101 1    
    76   38   39 2    
    77   38   40 1    
    78   40   41 1    
    79   40   42 1    
    80   40  102 1    
    81   41  103 1    
    82   41  104 1    
    83   41  105 1    
    84   42   43 am   BACKBONE|DICT|INTERRES
    85   42  106 1    
    86   43   44 2    
    87   43   45 1    
    88   45   46 1    
    89   45   49 1    
    90   45  107 1    
    91   46   47 1    
    92   46  108 1    
    93   46  109 1    
    94   47   48 1    
    95   48  110 1    
    96   48  111 1    
    97   49   50 am   BACKBONE|DICT|INTERRES
    98   49  112 1    
    99   50   51 2    
   100   50   52 1    
   101   52   53 1    
   102   52   54 1    
   103   52  113 1    
   104   53  114 1    
   105   53  115 1    
   106   53  116 1    
   107   54   55 am   BACKBONE|DICT|INTERRES
   108   54  117 1    
   109   55   56 2    
   110   55   57 1    
   111   57   58 1    
   112   57   59 1    
   113   57  118 1    
   114   58  119 1    
   115   58  120 1    
   116   58  121 1    
   117   59   60 am   BACKBONE|DICT|INTERRES
   118   59  122 1    
   119   60   61 2    
   120   60   62 1    
   121   62   63 1    
   122   62   64 1    
   123   62  123 1    
   124   63  124 1    
   125   63  125 1    
   126   63  126 1    
   127   64   65 am   BACKBONE|DICT|INTERRES
   128   64  127 1    
   129   65   66 2    
@<TRIPOS>SUBSTRUCTURE
     1 UNK         1 GROUP             0       ****    0 ROOT    
