@<TRIPOS>MOLECULE
3R135
127   129    1
SMALL
USER_CHARGES


@<TRIPOS>ATOM
      1 CA        -82.9654   22.8415  -73.8828 C.3       0 UNK        -0.1998 
      2 C         -82.5969   24.3166  -73.8929 C.2       0 UNK         0.4909 
      3 O         -82.7011   24.9689  -74.9322 O.2       0 UNK        -0.5240 
      4 N         -82.1693   24.8522  -72.7420 N.am      1 UNK        -0.4739 
      5 CA        -81.8049   26.2623  -72.5719 C.3       1 UNK         0.0864 
      6 C6        -81.6482   26.6358  -71.0793 C.3       11 UNK        -0.0881 
      7 S7        -81.8550   28.4295  -70.8005 S.3       11 UNK        -0.2682 
      8 C8        -80.6089   28.7718  -69.5194 C.3       11 UNK         0.0289 
      9 C9        -79.1850   28.7317  -70.0571 C.ar      11 UNK        -0.0687 
     10 C10       -78.3961   27.5930  -69.8691 C.ar      11 UNK        -0.0823 
     11 C11       -77.0742   27.5653  -70.3178 C.ar      11 UNK        -0.0830 
     12 C12       -76.5285   28.6987  -70.9236 C.ar      11 UNK        -0.1021 
     13 C13       -77.3116   29.8336  -71.1441 C.ar      11 UNK        -0.0753 
     14 C14       -78.6421   29.8445  -70.7102 C.ar      11 UNK        -0.0933 
     15 C15       -76.7032   31.0583  -71.8118 C.3       11 UNK         0.0166 
     16 S16       -76.8415   31.0260  -73.6311 S.3       11 UNK        -0.2615 
     17 C17       -75.6194   29.7710  -74.1572 C.3       11 UNK        -0.0865 
     18 CA        -74.1964   30.3583  -74.3600 C.3       10 UNK         0.0862 
     19 C         -73.3863   30.4044  -73.0379 C.2       10 UNK         0.5551 
     20 N         -73.0168   31.5882  -72.5689 N.am      10 UNK        -0.7319 
     21 O         -73.1241   29.3747  -72.4207 O.2       10 UNK        -0.5018 
     22 N         -73.4458   29.6186  -75.3823 N.am      10 UNK        -0.4509 
     23 C         -72.4204   30.1408  -76.0712 C.2       10 UNK         0.4899 
     24 O         -72.0776   31.3220  -75.9907 O.2       10 UNK        -0.4839 
     25 CA        -71.6594   29.1897  -77.0153 C.3       9 UNK         0.0222 
     26 CB        -70.3355   29.7845  -77.5416 C.3       9 UNK        -0.1966 
     27 N         -71.4422   27.8612  -76.4348 N.am      9 UNK        -0.4218 
     28 C         -70.7610   27.5501  -75.3187 C.2       9 UNK         0.5020 
     29 O         -70.1397   28.3727  -74.6446 O.2       9 UNK        -0.5274 
     30 CA        -70.7770   26.0771  -74.8613 C.3       8 UNK         0.0270 
     31 CB        -71.2887   25.9610  -73.4134 C.3       8 UNK        -0.1976 
     32 N         -71.6181   25.2430  -75.7233 N.am      8 UNK        -0.4313 
     33 C         -71.1784   24.4804  -76.7345 C.2       8 UNK         0.5041 
     34 O         -69.9873   24.3157  -76.9994 O.2       8 UNK        -0.5577 
     35 CA        -72.2443   23.8045  -77.6217 C.3       7 UNK         0.0284 
     36 CB        -72.4773   22.3540  -77.1695 C.3       7 UNK        -0.1958 
     37 N         -73.5289   24.5121  -77.6417 N.am      7 UNK        -0.4454 
     38 C         -73.7203   25.7517  -78.1185 C.2       7 UNK         0.5089 
     39 O         -72.8424   26.4120  -78.6714 O.2       7 UNK        -0.5125 
     40 CA        -75.0923   26.3969  -77.8536 C.3       6 UNK         0.0408 
     41 CB        -76.0267   26.1766  -79.0519 C.3       6 UNK        -0.1791 
     42 N         -75.7285   25.8952  -76.6311 N.am      6 UNK        -0.4762 
     43 C         -75.2274   26.0144  -75.3921 C.2       6 UNK         0.5007 
     44 O         -74.2057   26.6614  -75.1551 O.2       6 UNK        -0.5032 
     45 CA        -75.9212   25.2449  -74.2432 C.3       5 UNK         0.0783 
     46 C46       -76.0931   26.1174  -72.9812 C.3       11 UNK        -0.0857 
     47 S47       -76.5959   25.1342  -71.5281 S.3       11 UNK        -0.2512 
     48 C48       -76.2418   26.3015  -70.1758 C.3       11 UNK         0.0225 
     49 N         -77.1862   24.6225  -74.6483 N.am      5 UNK        -0.4615 
     50 C         -77.2923   23.4845  -75.3447 C.2       4 UNK         0.5053 
     51 O         -76.3260   22.8314  -75.7389 O.2       4 UNK        -0.5105 
     52 CA        -78.7149   23.0419  -75.7091 C.3       4 UNK         0.0263 
     53 CB        -79.4046   22.3796  -74.5065 C.3       4 UNK        -0.1981 
     54 N         -79.5105   24.1744  -76.1930 N.am      4 UNK        -0.4224 
     55 C         -79.4016   24.6888  -77.4275 C.2       3 UNK         0.4895 
     56 O         -78.6898   24.2033  -78.3060 O.2       3 UNK        -0.5091 
     57 CA        -80.1948   25.9697  -77.7368 C.3       3 UNK         0.0250 
     58 CB        -81.5977   25.6281  -78.2629 C.3       3 UNK        -0.1996 
     59 N         -80.3009   26.8570  -76.5768 N.am      3 UNK        -0.4254 
     60 C         -79.2972   27.6236  -76.1218 C.2       2 UNK         0.5004 
     61 O         -78.2091   27.7235  -76.6839 O.2       2 UNK        -0.5226 
     62 CA        -79.5292   28.4101  -74.8189 C.3       2 UNK         0.0269 
     63 CB        -79.8742   29.8735  -75.1359 C.3       2 UNK        -0.1926 
     64 N         -80.5748   27.8553  -73.9571 N.am      2 UNK        -0.4687 
     65 C         -80.5594   26.6364  -73.4035 C.2       1 UNK         0.5165 
     66 O         -79.6430   25.8237  -73.5587 O.2       1 UNK        -0.5079 
     67 H67       -84.0353   22.7251  -73.7131 H         1 UNK         0.0900 
     68 H68       -82.7241   22.3830  -74.8413 H         1 UNK         0.0900 
     69 H69       -82.4313   22.2994  -73.1026 H         1 UNK         0.0900 
     70 H70       -82.0684   24.2658  -71.9260 H         1 UNK         0.2959 
     71 H71       -82.6494   26.8304  -72.9702 H         1 UNK         0.1079 
     72 H72       -82.4166   26.1379  -70.4856 H         1 UNK         0.0837 
     73 H73       -80.6950   26.2796  -70.6890 H         1 UNK         0.0837 
     74 H74       -80.8059   29.7587  -69.0982 H         1 UNK         0.0685 
     75 H75       -80.7315   28.0644  -68.6976 H         1 UNK         0.0685 
     76 H76       -78.8091   26.7228  -69.3778 H         1 UNK         0.1434 
     77 H77       -75.4953   28.6880  -71.2412 H         1 UNK         0.1329 
     78 H78       -79.2507   30.7251  -70.8636 H         1 UNK         0.1335 
     79 H79       -75.6611   31.1699  -71.5143 H         1 UNK         0.0680 
     80 H80       -77.2078   31.9553  -71.4498 H         1 UNK         0.0680 
     81 H81       -75.6146   28.9181  -73.4833 H         1 UNK         0.1032 
     82 H82       -75.9895   29.3763  -75.1054 H         1 UNK         0.1032 
     83 H83       -74.3180   31.3790  -74.7299 H         1 UNK         0.0461 
     84 H84       -73.2230   32.4342  -73.0767 H         1 UNK         0.3453 
     85 H85       -72.4972   31.6341  -71.7067 H         1 UNK         0.3453 
     86 H86       -73.6247   28.6213  -75.4361 H         1 UNK         0.2984 
     87 H87       -72.3124   29.0391  -77.8759 H         1 UNK         0.0554 
     88 H88       -70.5136   30.7097  -78.0910 H         1 UNK         0.0847 
     89 H89       -69.8351   29.0967  -78.2231 H         1 UNK         0.0847 
     90 H90       -69.6439   30.0171  -76.7313 H         1 UNK         0.0847 
     91 H91       -71.8865   27.1060  -76.9433 H         1 UNK         0.3141 
     92 H92       -69.7459   25.7188  -74.8865 H         1 UNK         0.0743 
     93 H93       -72.2917   26.3751  -73.3023 H         1 UNK         0.0784 
     94 H94       -71.3139   24.9228  -73.0820 H         1 UNK         0.0784 
     95 H95       -70.6394   26.5034  -72.7250 H         1 UNK         0.0784 
     96 H96       -72.6163   25.3590  -75.5946 H         1 UNK         0.3213 
     97 H97       -71.8562   23.7895  -78.6425 H         1 UNK         0.0855 
     98 H98       -72.8937   22.3060  -76.1623 H         1 UNK         0.0814 
     99 H99       -71.5423   21.7919  -77.1632 H         1 UNK         0.0814 
    100 H100      -73.1611   21.8336  -77.8404 H         1 UNK         0.0814 
    101 H101      -74.3144   24.0435  -77.2102 H         1 UNK         0.3105 
    102 H102      -74.9386   27.4710  -77.7304 H         1 UNK         0.0547 
    103 H103      -75.5868   26.5731  -79.9679 H         1 UNK         0.0837 
    104 H104      -76.2288   25.1179  -79.2185 H         1 UNK         0.0837 
    105 H105      -76.9819   26.6816  -78.9088 H         1 UNK         0.0837 
    106 H106      -76.5906   25.3821  -76.7480 H         1 UNK         0.3020 
    107 H107      -75.2259   24.4432  -73.9832 H         1 UNK         0.1245 
    108 H108      -76.8423   26.8915  -73.1556 H         1 UNK         0.0781 
    109 H109      -75.1597   26.6255  -72.7304 H         1 UNK         0.0781 
    110 H110      -75.1764   26.5379  -70.1663 H         1 UNK         0.0836 
    111 H111      -76.4571   25.8193  -69.2212 H         1 UNK         0.0836 
    112 H112      -78.0341   25.0802  -74.3220 H         1 UNK         0.3022 
    113 H113      -78.6391   22.2964  -76.5039 H         1 UNK         0.0747 
    114 H114      -80.3577   21.9406  -74.7966 H         1 UNK         0.0793 
    115 H115      -78.7921   21.5726  -74.1019 H         1 UNK         0.0793 
    116 H116      -79.5860   23.0871  -73.6965 H         1 UNK         0.0793 
    117 H117      -80.0869   24.6548  -75.5141 H         1 UNK         0.3047 
    118 H118      -79.6622   26.5030  -78.5276 H         1 UNK         0.0822 
    119 H119      -82.1519   26.5281  -78.5298 H         1 UNK         0.0807 
    120 H120      -82.1854   25.0770  -77.5285 H         1 UNK         0.0807 
    121 H121      -81.5359   25.0089  -79.1589 H         1 UNK         0.0807 
    122 H122      -81.1650   26.8260  -76.0530 H         1 UNK         0.2946 
    123 H123      -78.5926   28.3889  -74.2571 H         1 UNK         0.1144 
    124 H124      -79.9449   30.4694  -74.2255 H         1 UNK         0.0793 
    125 H125      -80.8199   29.9605  -75.6722 H         1 UNK         0.0793 
    126 H126      -79.1027   30.3296  -75.7581 H         1 UNK         0.0793 
    127 H127      -81.3567   28.4632  -73.7584 H         1 UNK         0.2896 
@<TRIPOS>BOND
     1    1    2 1    
     2    1   67 1    
     3    1   68 1    
     4    1   69 1    
     5    2    3 2    
     6    2    4 am   BACKBONE|DICT|INTERRES
     7    4    5 1    
     8    4   70 1    
     9    5    6 1    
    10    5   65 1    
    11    5   71 1    
    12    6    7 1    
    13    6   72 1    
    14    6   73 1    
    15    7    8 1    
    16    8    9 1    
    17    8   74 1    
    18    8   75 1    
    19    9   10 ar   
    20    9   14 ar   
    21   10   11 ar   
    22   10   76 1    
    23   11   12 ar   
    24   11   48 1    
    25   12   13 ar   
    26   12   77 1    
    27   13   14 ar   
    28   13   15 1    
    29   14   78 1    
    30   15   16 1    
    31   15   79 1    
    32   15   80 1    
    33   16   17 1    
    34   17   18 1    
    35   17   81 1    
    36   17   82 1    
    37   18   19 1    
    38   18   22 1    
    39   18   83 1    
    40   19   20 am   BACKBONE|DICT|INTERRES
    41   19   21 2    
    42   20   84 1    
    43   20   85 1    
    44   22   23 am   BACKBONE|DICT|INTERRES
    45   22   86 1    
    46   23   24 2    
    47   23   25 1    
    48   25   26 1    
    49   25   27 1    
    50   25   87 1    
    51   26   88 1    
    52   26   89 1    
    53   26   90 1    
    54   27   28 am   BACKBONE|DICT|INTERRES
    55   27   91 1    
    56   28   29 2    
    57   28   30 1    
    58   30   31 1    
    59   30   32 1    
    60   30   92 1    
    61   31   93 1    
    62   31   94 1    
    63   31   95 1    
    64   32   33 am   BACKBONE|DICT|INTERRES
    65   32   96 1    
    66   33   34 2    
    67   33   35 1    
    68   35   36 1    
    69   35   37 1    
    70   35   97 1    
    71   36   98 1    
    72   36   99 1    
    73   36  100 1    
    74   37   38 am   BACKBONE|DICT|INTERRES
    75   37  101 1    
    76   38   39 2    
    77   38   40 1    
    78   40   41 1    
    79   40   42 1    
    80   40  102 1    
    81   41  103 1    
    82   41  104 1    
    83   41  105 1    
    84   42   43 am   BACKBONE|DICT|INTERRES
    85   42  106 1    
    86   43   44 2    
    87   43   45 1    
    88   45   46 1    
    89   45   49 1    
    90   45  107 1    
    91   46   47 1    
    92   46  108 1    
    93   46  109 1    
    94   47   48 1    
    95   48  110 1    
    96   48  111 1    
    97   49   50 am   BACKBONE|DICT|INTERRES
    98   49  112 1    
    99   50   51 2    
   100   50   52 1    
   101   52   53 1    
   102   52   54 1    
   103   52  113 1    
   104   53  114 1    
   105   53  115 1    
   106   53  116 1    
   107   54   55 am   BACKBONE|DICT|INTERRES
   108   54  117 1    
   109   55   56 2    
   110   55   57 1    
   111   57   58 1    
   112   57   59 1    
   113   57  118 1    
   114   58  119 1    
   115   58  120 1    
   116   58  121 1    
   117   59   60 am   BACKBONE|DICT|INTERRES
   118   59  122 1    
   119   60   61 2    
   120   60   62 1    
   121   62   63 1    
   122   62   64 1    
   123   62  123 1    
   124   63  124 1    
   125   63  125 1    
   126   63  126 1    
   127   64   65 am   BACKBONE|DICT|INTERRES
   128   64  127 1    
   129   65   66 2    
@<TRIPOS>SUBSTRUCTURE
     1 UNK         1 GROUP             0       ****    0 ROOT    
