@<TRIPOS>MOLECULE
3R135
127   129    1
SMALL
USER_CHARGES


@<TRIPOS>ATOM
      1 CA        -83.4930   30.0622  -73.6044 C.3       0 UNK        -0.1998 
      2 C         -82.0246   29.7019  -73.4360 C.2       0 UNK         0.4909 
      3 O         -81.1601   30.5602  -73.6144 O.2       0 UNK        -0.5240 
      4 N         -81.7395   28.4418  -73.0848 N.am      1 UNK        -0.4739 
      5 CA        -80.3859   27.8975  -72.9287 C.3       1 UNK         0.0864 
      6 C6        -80.4042   26.5478  -72.1681 C.3       11 UNK        -0.0881 
      7 S7        -80.9652   26.7881  -70.4425 S.3       11 UNK        -0.2682 
      8 C8        -79.4888   26.4090  -69.4339 C.3       11 UNK         0.0289 
      9 C9        -78.2015   27.0013  -69.9939 C.ar      11 UNK        -0.0687 
     10 C10       -77.1506   26.1550  -70.3542 C.ar      11 UNK        -0.0823 
     11 C11       -75.9916   26.6650  -70.9498 C.ar      11 UNK        -0.0830 
     12 C12       -75.8761   28.0451  -71.1393 C.ar      11 UNK        -0.1021 
     13 C13       -76.9093   28.9081  -70.7583 C.ar      11 UNK        -0.0753 
     14 C14       -78.0667   28.3799  -70.1787 C.ar      11 UNK        -0.0933 
     15 C15       -76.7805   30.4099  -70.9679 C.3       11 UNK         0.0166 
     16 S16       -76.6337   30.8409  -72.7312 S.3       11 UNK        -0.2615 
     17 C17       -74.8842   31.3488  -72.8068 C.3       11 UNK        -0.0865 
     18 CA        -74.4161   31.6806  -74.2455 C.3       10 UNK         0.0862 
     19 C         -73.0160   32.3544  -74.2079 C.2       10 UNK         0.5551 
     20 N         -72.9656   33.6790  -74.1847 N.am      10 UNK        -0.7319 
     21 O         -71.9846   31.6869  -74.1525 O.2       10 UNK        -0.5018 
     22 N         -74.4319   30.4873  -75.1030 N.am      10 UNK        -0.4509 
     23 C         -74.2111   30.4837  -76.4226 C.2       10 UNK         0.4899 
     24 O         -74.1096   31.5060  -77.1025 O.2       10 UNK        -0.4839 
     25 CA        -74.0504   29.0989  -77.0810 C.3       9 UNK         0.0222 
     26 CB        -73.8030   29.1837  -78.5986 C.3       9 UNK        -0.1966 
     27 N         -72.9644   28.3357  -76.4597 N.am      9 UNK        -0.4218 
     28 C         -73.0611   27.6549  -75.3118 C.2       9 UNK         0.5020 
     29 O         -74.0940   27.5773  -74.6432 O.2       9 UNK        -0.5274 
     30 CA        -71.7998   26.9465  -74.8191 C.3       8 UNK         0.0270 
     31 CB        -71.3693   27.4559  -73.4313 C.3       8 UNK        -0.1976 
     32 N         -72.0981   25.5215  -74.7755 N.am      8 UNK        -0.4313 
     33 C         -71.2067   24.5380  -74.9403 C.2       8 UNK         0.5041 
     34 O         -69.9921   24.7202  -75.0373 O.2       8 UNK        -0.5577 
     35 CA        -71.7631   23.1062  -75.0381 C.3       7 UNK         0.0284 
     36 CB        -71.8356   22.4621  -73.6442 C.3       7 UNK        -0.1958 
     37 N         -73.0843   23.0379  -75.6690 N.am      7 UNK        -0.4454 
     38 C         -73.3697   23.3607  -76.9378 C.2       7 UNK         0.5089 
     39 O         -72.5202   23.7138  -77.7558 O.2       7 UNK        -0.5125 
     40 CA        -74.8485   23.3168  -77.3734 C.3       6 UNK         0.0408 
     41 CB        -75.1875   21.9855  -78.0700 C.3       6 UNK        -0.1791 
     42 N         -75.8144   23.6301  -76.3100 N.am      6 UNK        -0.4762 
     43 C         -76.1158   22.9314  -75.2043 C.2       6 UNK         0.5007 
     44 O         -75.6011   21.8527  -74.9093 O.2       6 UNK        -0.5032 
     45 CA        -77.1378   23.5764  -74.2546 C.3       5 UNK         0.0783 
     46 C46       -76.4983   24.7389  -73.4565 C.3       11 UNK        -0.0857 
     47 S47       -75.4227   24.1559  -72.1061 S.3       11 UNK        -0.2512 
     48 C48       -74.8591   25.7452  -71.4042 C.3       11 UNK         0.0225 
     49 N         -78.3061   24.0246  -75.0129 N.am      5 UNK        -0.4615 
     50 C         -79.3280   23.2381  -75.3773 C.2       4 UNK         0.5053 
     51 O         -79.4514   22.0700  -75.0090 O.2       4 UNK        -0.5105 
     52 CA        -80.3951   23.8425  -76.3099 C.3       4 UNK         0.0263 
     53 CB        -81.6664   24.2028  -75.5253 C.3       4 UNK        -0.1981 
     54 N         -79.9137   25.0260  -77.0275 N.am      4 UNK        -0.4224 
     55 C         -79.1321   24.9738  -78.1171 C.2       3 UNK         0.4895 
     56 O         -78.8241   23.9266  -78.6866 O.2       3 UNK        -0.5091 
     57 CA        -78.5692   26.3045  -78.6521 C.3       3 UNK         0.0250 
     58 CB        -79.4610   26.8522  -79.7776 C.3       3 UNK        -0.1996 
     59 N         -78.3958   27.3385  -77.6267 N.am      3 UNK        -0.4254 
     60 C         -77.6033   27.2325  -76.5510 C.2       2 UNK         0.5004 
     61 O         -76.9150   26.2415  -76.3159 O.2       2 UNK        -0.5226 
     62 CA        -77.5941   28.4069  -75.5564 C.3       2 UNK         0.0269 
     63 CB        -77.9714   29.7557  -76.2078 C.3       2 UNK        -0.1926 
     64 N         -78.4155   28.1835  -74.3593 N.am      2 UNK        -0.4687 
     65 C         -79.6948   27.7832  -74.3027 C.2       1 UNK         0.5165 
     66 O         -80.3338   27.3577  -75.2692 O.2       1 UNK        -0.5079 
     67 H67       -83.7626   30.8670  -72.9210 H         1 UNK         0.0900 
     68 H68       -83.6810   30.4017  -74.6226 H         1 UNK         0.0900 
     69 H69       -84.1469   29.2137  -73.4037 H         1 UNK         0.0900 
     70 H70       -82.4908   27.7792  -72.9590 H         1 UNK         0.2959 
     71 H71       -79.8165   28.6176  -72.3375 H         1 UNK         0.1079 
     72 H72       -81.0792   25.8409  -72.6516 H         1 UNK         0.0837 
     73 H73       -79.4232   26.0726  -72.1789 H         1 UNK         0.0837 
     74 H74       -79.6453   26.7873  -68.4229 H         1 UNK         0.0685 
     75 H75       -79.4068   25.3247  -69.3446 H         1 UNK         0.0685 
     76 H76       -77.2503   25.0894  -70.2011 H         1 UNK         0.1434 
     77 H77       -74.9838   28.4485  -71.5972 H         1 UNK         0.1329 
     78 H78       -78.8771   29.0360  -69.8910 H         1 UNK         0.1335 
     79 H79       -75.9209   30.7796  -70.4073 H         1 UNK         0.0680 
     80 H80       -77.6505   30.9296  -70.5634 H         1 UNK         0.0680 
     81 H81       -74.7723   32.2221  -72.1605 H         1 UNK         0.1032 
     82 H82       -74.2574   30.5676  -72.3730 H         1 UNK         0.1032 
     83 H83       -75.1210   32.3946  -74.6767 H         1 UNK         0.0461 
     84 H84       -73.8067   34.2339  -74.2204 H         1 UNK         0.3453 
     85 H85       -72.0672   34.1345  -74.1434 H         1 UNK         0.3453 
     86 H86       -74.4650   29.5913  -74.6296 H         1 UNK         0.2984 
     87 H87       -74.9850   28.5566  -76.9397 H         1 UNK         0.0554 
     88 H88       -74.6172   29.7107  -79.0979 H         1 UNK         0.0847 
     89 H89       -73.7412   28.1916  -79.0465 H         1 UNK         0.0847 
     90 H90       -72.8795   29.7157  -78.8305 H         1 UNK         0.0847 
     91 H91       -72.0690   28.3732  -76.9261 H         1 UNK         0.3141 
     92 H92       -70.9892   27.1266  -75.5288 H         1 UNK         0.0743 
     93 H93       -72.1364   27.2791  -72.6773 H         1 UNK         0.0784 
     94 H94       -70.4540   26.9675  -73.0967 H         1 UNK         0.0784 
     95 H95       -71.1758   28.5294  -73.4543 H         1 UNK         0.0784 
     96 H96       -73.0814   25.2906  -74.7203 H         1 UNK         0.3213 
     97 H97       -71.0715   22.5252  -75.6519 H         1 UNK         0.0855 
     98 H98       -72.5330   22.9886  -72.9911 H         1 UNK         0.0814 
     99 H99       -70.8594   22.4752  -73.1572 H         1 UNK         0.0814 
    100 H100      -72.1530   21.4209  -73.7036 H         1 UNK         0.0814 
    101 H101      -73.8505   22.6825  -75.1056 H         1 UNK         0.3105 
    102 H102      -74.9735   24.1106  -78.1117 H         1 UNK         0.0547 
    103 H103      -74.5404   21.8242  -78.9331 H         1 UNK         0.0837 
    104 H104      -75.0582   21.1302  -77.4066 H         1 UNK         0.0837 
    105 H105      -76.2163   21.9797  -78.4305 H         1 UNK         0.0837 
    106 H106      -76.2527   24.5467  -76.4001 H         1 UNK         0.3020 
    107 H107      -77.4632   22.8106  -73.5460 H         1 UNK         0.1245 
    108 H108      -77.2874   25.3484  -73.0177 H         1 UNK         0.0781 
    109 H109      -75.9261   25.4148  -74.0943 H         1 UNK         0.0781 
    110 H110      -74.2478   26.2457  -72.1562 H         1 UNK         0.0836 
    111 H111      -74.2056   25.5447  -70.5545 H         1 UNK         0.0836 
    112 H112      -78.2357   24.9500  -75.4173 H         1 UNK         0.3022 
    113 H113      -80.6607   23.0739  -77.0391 H         1 UNK         0.0747 
    114 H114      -82.4512   24.5659  -76.1891 H         1 UNK         0.0793 
    115 H115      -82.0627   23.3323  -75.0009 H         1 UNK         0.0793 
    116 H116      -81.4770   24.9740  -74.7804 H         1 UNK         0.0793 
    117 H117      -80.1123   25.9288  -76.6027 H         1 UNK         0.3047 
    118 H118      -77.5827   26.0911  -79.0693 H         1 UNK         0.0822 
    119 H119      -79.0249   27.7412  -80.2336 H         1 UNK         0.0807 
    120 H120      -80.4557   27.1130  -79.4136 H         1 UNK         0.0807 
    121 H121      -79.5873   26.1131  -80.5702 H         1 UNK         0.0807 
    122 H122      -78.9595   28.1708  -77.7219 H         1 UNK         0.2946 
    123 H123      -76.5676   28.4858  -75.1979 H         1 UNK         0.1144 
    124 H124      -77.7719   30.5845  -75.5287 H         1 UNK         0.0793 
    125 H125      -79.0274   29.8046  -76.4757 H         1 UNK         0.0793 
    126 H126      -77.3867   29.9404  -77.1102 H         1 UNK         0.0793 
    127 H127      -77.9757   28.4735  -73.4955 H         1 UNK         0.2896 
@<TRIPOS>BOND
     1    1    2 1    
     2    1   67 1    
     3    1   68 1    
     4    1   69 1    
     5    2    3 2    
     6    2    4 am   BACKBONE|DICT|INTERRES
     7    4    5 1    
     8    4   70 1    
     9    5    6 1    
    10    5   65 1    
    11    5   71 1    
    12    6    7 1    
    13    6   72 1    
    14    6   73 1    
    15    7    8 1    
    16    8    9 1    
    17    8   74 1    
    18    8   75 1    
    19    9   10 ar   
    20    9   14 ar   
    21   10   11 ar   
    22   10   76 1    
    23   11   12 ar   
    24   11   48 1    
    25   12   13 ar   
    26   12   77 1    
    27   13   14 ar   
    28   13   15 1    
    29   14   78 1    
    30   15   16 1    
    31   15   79 1    
    32   15   80 1    
    33   16   17 1    
    34   17   18 1    
    35   17   81 1    
    36   17   82 1    
    37   18   19 1    
    38   18   22 1    
    39   18   83 1    
    40   19   20 am   BACKBONE|DICT|INTERRES
    41   19   21 2    
    42   20   84 1    
    43   20   85 1    
    44   22   23 am   BACKBONE|DICT|INTERRES
    45   22   86 1    
    46   23   24 2    
    47   23   25 1    
    48   25   26 1    
    49   25   27 1    
    50   25   87 1    
    51   26   88 1    
    52   26   89 1    
    53   26   90 1    
    54   27   28 am   BACKBONE|DICT|INTERRES
    55   27   91 1    
    56   28   29 2    
    57   28   30 1    
    58   30   31 1    
    59   30   32 1    
    60   30   92 1    
    61   31   93 1    
    62   31   94 1    
    63   31   95 1    
    64   32   33 am   BACKBONE|DICT|INTERRES
    65   32   96 1    
    66   33   34 2    
    67   33   35 1    
    68   35   36 1    
    69   35   37 1    
    70   35   97 1    
    71   36   98 1    
    72   36   99 1    
    73   36  100 1    
    74   37   38 am   BACKBONE|DICT|INTERRES
    75   37  101 1    
    76   38   39 2    
    77   38   40 1    
    78   40   41 1    
    79   40   42 1    
    80   40  102 1    
    81   41  103 1    
    82   41  104 1    
    83   41  105 1    
    84   42   43 am   BACKBONE|DICT|INTERRES
    85   42  106 1    
    86   43   44 2    
    87   43   45 1    
    88   45   46 1    
    89   45   49 1    
    90   45  107 1    
    91   46   47 1    
    92   46  108 1    
    93   46  109 1    
    94   47   48 1    
    95   48  110 1    
    96   48  111 1    
    97   49   50 am   BACKBONE|DICT|INTERRES
    98   49  112 1    
    99   50   51 2    
   100   50   52 1    
   101   52   53 1    
   102   52   54 1    
   103   52  113 1    
   104   53  114 1    
   105   53  115 1    
   106   53  116 1    
   107   54   55 am   BACKBONE|DICT|INTERRES
   108   54  117 1    
   109   55   56 2    
   110   55   57 1    
   111   57   58 1    
   112   57   59 1    
   113   57  118 1    
   114   58  119 1    
   115   58  120 1    
   116   58  121 1    
   117   59   60 am   BACKBONE|DICT|INTERRES
   118   59  122 1    
   119   60   61 2    
   120   60   62 1    
   121   62   63 1    
   122   62   64 1    
   123   62  123 1    
   124   63  124 1    
   125   63  125 1    
   126   63  126 1    
   127   64   65 am   BACKBONE|DICT|INTERRES
   128   64  127 1    
   129   65   66 2    
@<TRIPOS>SUBSTRUCTURE
     1 UNK         1 GROUP             0       ****    0 ROOT    
