@<TRIPOS>MOLECULE
3R135
127   129    1
SMALL
USER_CHARGES


@<TRIPOS>ATOM
      1 CA        -82.1417   20.4991  -72.2341 C.3       0 UNK        -0.1998 
      2 C         -82.1352   22.0119  -72.0762 C.2       0 UNK         0.4909 
      3 O         -83.1406   22.6602  -72.3682 O.2       0 UNK        -0.5240 
      4 N         -81.0097   22.5782  -71.6180 N.am      1 UNK        -0.4739 
      5 CA        -80.7812   24.0190  -71.4589 C.3       1 UNK         0.0864 
      6 C6        -79.4204   24.2841  -70.7605 C.3       11 UNK        -0.0881 
      7 S7        -79.0223   26.0539  -70.5224 S.3       11 UNK        -0.2682 
      8 C8        -77.7003   26.2528  -71.7589 C.3       11 UNK         0.0289 
      9 C9        -77.3412   27.7133  -71.9760 C.ar      11 UNK        -0.0687 
     10 C10       -77.9354   28.4344  -73.0157 C.ar      11 UNK        -0.0823 
     11 C11       -77.5562   29.7547  -73.2715 C.ar      11 UNK        -0.0830 
     12 C12       -76.6197   30.3728  -72.4389 C.ar      11 UNK        -0.1021 
     13 C13       -76.0210   29.6643  -71.3938 C.ar      11 UNK        -0.0753 
     14 C14       -76.3835   28.3328  -71.1683 C.ar      11 UNK        -0.0933 
     15 C15       -74.9720   30.3293  -70.5169 C.3       11 UNK         0.0166 
     16 S16       -73.3020   30.1492  -71.2197 S.3       11 UNK        -0.2615 
     17 C17       -73.2628   31.4721  -72.4820 C.3       11 UNK        -0.0865 
     18 CA        -73.4172   30.9605  -73.9468 C.3       10 UNK         0.0862 
     19 C         -73.5025   32.1242  -74.9800 C.2       10 UNK         0.5551 
     20 N         -72.9995   31.9634  -76.1985 N.am      10 UNK        -0.7319 
     21 O         -74.0521   33.1827  -74.6845 O.2       10 UNK        -0.5018 
     22 N         -72.4691   29.8946  -74.3113 N.am      10 UNK        -0.4509 
     23 C         -71.1304   29.9650  -74.2840 C.2       10 UNK         0.4899 
     24 O         -70.5022   30.9711  -73.9513 O.2       10 UNK        -0.4839 
     25 CA        -70.3608   28.7060  -74.7338 C.3       9 UNK         0.0222 
     26 CB        -68.9651   28.5865  -74.0847 C.3       9 UNK        -0.1966 
     27 N         -71.1379   27.4698  -74.5803 N.am      9 UNK        -0.4218 
     28 C         -71.5559   26.8937  -73.4397 C.2       9 UNK         0.5020 
     29 O         -71.2186   27.2690  -72.3167 O.2       9 UNK        -0.5274 
     30 CA        -72.5372   25.7099  -73.5578 C.3       8 UNK         0.0270 
     31 CB        -73.8863   26.0551  -72.8984 C.3       8 UNK        -0.1976 
     32 N         -72.7775   25.3171  -74.9486 N.am      8 UNK        -0.4313 
     33 C         -72.0284   24.4460  -75.6390 C.2       8 UNK         0.5041 
     34 O         -71.0989   23.8046  -75.1485 O.2       8 UNK        -0.5577 
     35 CA        -72.3507   24.2743  -77.1363 C.3       7 UNK         0.0284 
     36 CB        -73.2275   23.0310  -77.3560 C.3       7 UNK        -0.1958 
     37 N         -73.0015   25.4437  -77.7404 N.am      7 UNK        -0.4454 
     38 C         -72.4221   26.6424  -77.9022 C.2       7 UNK         0.5089 
     39 O         -71.2667   26.8938  -77.5633 O.2       7 UNK        -0.5125 
     40 CA        -73.3045   27.7680  -78.4704 C.3       6 UNK         0.0408 
     41 CB        -73.3190   27.7216  -80.0062 C.3       6 UNK        -0.1791 
     42 N         -74.6815   27.7481  -77.9598 N.am      6 UNK        -0.4762 
     43 C         -75.0143   27.8887  -76.6663 C.2       6 UNK         0.5007 
     44 O         -74.1866   28.0005  -75.7606 O.2       6 UNK        -0.5032 
     45 CA        -76.5084   27.8011  -76.3242 C.3       5 UNK         0.0783 
     46 C46       -77.3272   29.0432  -76.7708 C.3       11 UNK        -0.0857 
     47 S47       -76.9412   30.5671  -75.8427 S.3       11 UNK        -0.2512 
     48 C48       -78.1304   30.5131  -74.4587 C.3       11 UNK         0.0225 
     49 N         -77.0381   26.5418  -76.8543 N.am      5 UNK        -0.4615 
     50 C         -78.1644   25.9623  -76.4289 C.2       4 UNK         0.5053 
     51 O         -78.9156   26.4774  -75.6008 O.2       4 UNK        -0.5105 
     52 CA        -78.4915   24.5771  -77.0114 C.3       4 UNK         0.0263 
     53 CB        -77.4996   23.5203  -76.4958 C.3       4 UNK        -0.1981 
     54 N         -79.8364   24.1951  -76.5906 N.am      4 UNK        -0.4224 
     55 C         -80.8477   23.8282  -77.3884 C.2       3 UNK         0.4895 
     56 O         -80.7277   23.6194  -78.5963 O.2       3 UNK        -0.5091 
     57 CA        -82.2416   23.6856  -76.7364 C.3       3 UNK         0.0250 
     58 CB        -82.5248   22.2147  -76.3905 C.3       3 UNK        -0.1996 
     59 N         -82.3939   24.4962  -75.5243 N.am      3 UNK        -0.4254 
     60 C         -82.3302   25.8345  -75.4852 C.2       2 UNK         0.5004 
     61 O         -82.3943   26.5413  -76.4923 O.2       2 UNK        -0.5226 
     62 CA        -82.1249   26.5093  -74.1121 C.3       2 UNK         0.0269 
     63 CB        -83.3132   27.4258  -73.7735 C.3       2 UNK        -0.1926 
     64 N         -81.8777   25.6205  -72.9661 N.am      2 UNK        -0.4687 
     65 C         -80.8850   24.7283  -72.8253 C.2       1 UNK         0.5165 
     66 O         -80.0848   24.4312  -73.7129 O.2       1 UNK        -0.5079 
     67 H67       -81.1904   20.0540  -71.9430 H         1 UNK         0.0900 
     68 H68       -82.9246   20.0610  -71.6157 H         1 UNK         0.0900 
     69 H69       -82.3376   20.2320  -73.2722 H         1 UNK         0.0900 
     70 H70       -80.2148   21.9886  -71.4169 H         1 UNK         0.2959 
     71 H71       -81.5700   24.4032  -70.8084 H         1 UNK         0.1079 
     72 H72       -79.4217   23.8153  -69.7752 H         1 UNK         0.0837 
     73 H73       -78.6114   23.8021  -71.3132 H         1 UNK         0.0837 
     74 H74       -76.8192   25.6963  -71.4357 H         1 UNK         0.0685 
     75 H75       -78.0095   25.8097  -72.7068 H         1 UNK         0.0685 
     76 H76       -78.6721   27.9562  -73.6443 H         1 UNK         0.1434 
     77 H77       -76.3317   31.3976  -72.6287 H         1 UNK         0.1329 
     78 H78       -75.9138   27.7751  -70.3696 H         1 UNK         0.1335 
     79 H79       -74.9808   29.8750  -69.5249 H         1 UNK         0.0680 
     80 H80       -75.2082   31.3837  -70.3659 H         1 UNK         0.0680 
     81 H81       -74.0410   32.2005  -72.2504 H         1 UNK         0.1032 
     82 H82       -72.3229   32.0142  -72.3702 H         1 UNK         0.1032 
     83 H83       -74.3902   30.4767  -74.0143 H         1 UNK         0.0461 
     84 H84       -73.0661   32.7162  -76.8648 H         1 UNK         0.3453 
     85 H85       -72.5576   31.0958  -76.4536 H         1 UNK         0.3453 
     86 H86       -72.9052   29.0451  -74.6553 H         1 UNK         0.2984 
     87 H87       -70.2075   28.8233  -75.8073 H         1 UNK         0.0554 
     88 H88       -68.3349   29.4342  -74.3560 H         1 UNK         0.0847 
     89 H89       -68.4500   27.6838  -74.4128 H         1 UNK         0.0847 
     90 H90       -69.0233   28.5648  -72.9962 H         1 UNK         0.0847 
     91 H91       -71.4453   27.0615  -75.4554 H         1 UNK         0.3141 
     92 H92       -72.1009   24.8690  -73.0145 H         1 UNK         0.0743 
     93 H93       -74.5904   25.2262  -72.9713 H         1 UNK         0.0784 
     94 H94       -73.7564   26.2755  -71.8379 H         1 UNK         0.0784 
     95 H95       -74.3510   26.9323  -73.3498 H         1 UNK         0.0784 
     96 H96       -73.4973   25.8330  -75.4366 H         1 UNK         0.3213 
     97 H97       -71.4024   24.1184  -77.6556 H         1 UNK         0.0855 
     98 H98       -74.1838   23.1132  -76.8398 H         1 UNK         0.0814 
     99 H99       -72.7324   22.1359  -76.9764 H         1 UNK         0.0814 
    100 H100      -73.4260   22.8630  -78.4147 H         1 UNK         0.0814 
    101 H101      -73.9487   25.3237  -78.0654 H         1 UNK         0.3105 
    102 H102      -72.8574   28.7170  -78.1664 H         1 UNK         0.0547 
    103 H103      -73.8550   28.5738  -80.4242 H         1 UNK         0.0837 
    104 H104      -72.3045   27.7535  -80.4065 H         1 UNK         0.0837 
    105 H105      -73.7882   26.8116  -80.3821 H         1 UNK         0.0837 
    106 H106      -75.4169   27.6882  -78.6499 H         1 UNK         0.3020 
    107 H107      -76.5599   27.7340  -75.2363 H         1 UNK         0.1245 
    108 H108      -78.3958   28.8526  -76.6681 H         1 UNK         0.0781 
    109 H109      -77.1743   29.2417  -77.8328 H         1 UNK         0.0781 
    110 H110      -79.0763   30.0772  -74.7838 H         1 UNK         0.0836 
    111 H111      -78.3586   31.5356  -74.1544 H         1 UNK         0.0836 
    112 H112      -76.4594   26.0591  -77.5250 H         1 UNK         0.3022 
    113 H113      -78.4318   24.6403  -78.0998 H         1 UNK         0.0747 
    114 H114      -77.5024   23.4658  -75.4058 H         1 UNK         0.0793 
    115 H115      -77.7446   22.5296  -76.8792 H         1 UNK         0.0793 
    116 H116      -76.4815   23.7448  -76.8115 H         1 UNK         0.0793 
    117 H117      -80.0317   24.3889  -75.6090 H         1 UNK         0.3047 
    118 H118      -82.9833   24.0225  -77.4636 H         1 UNK         0.0822 
    119 H119      -82.4501   21.5839  -77.2775 H         1 UNK         0.0807 
    120 H120      -83.5294   22.0874  -75.9866 H         1 UNK         0.0807 
    121 H121      -81.8162   21.8302  -75.6555 H         1 UNK         0.0807 
    122 H122      -82.3504   24.0042  -74.6425 H         1 UNK         0.2946 
    123 H123      -81.2350   27.1334  -74.2210 H         1 UNK         0.1144 
    124 H124      -83.1236   28.0062  -72.8703 H         1 UNK         0.0793 
    125 H125      -84.2300   26.8548  -73.6223 H         1 UNK         0.0793 
    126 H126      -83.5025   28.1395  -74.5767 H         1 UNK         0.0793 
    127 H127      -82.5073   25.7425  -72.1859 H         1 UNK         0.2896 
@<TRIPOS>BOND
     1    1    2 1    
     2    1   67 1    
     3    1   68 1    
     4    1   69 1    
     5    2    3 2    
     6    2    4 am   BACKBONE|DICT|INTERRES
     7    4    5 1    
     8    4   70 1    
     9    5    6 1    
    10    5   65 1    
    11    5   71 1    
    12    6    7 1    
    13    6   72 1    
    14    6   73 1    
    15    7    8 1    
    16    8    9 1    
    17    8   74 1    
    18    8   75 1    
    19    9   10 ar   
    20    9   14 ar   
    21   10   11 ar   
    22   10   76 1    
    23   11   12 ar   
    24   11   48 1    
    25   12   13 ar   
    26   12   77 1    
    27   13   14 ar   
    28   13   15 1    
    29   14   78 1    
    30   15   16 1    
    31   15   79 1    
    32   15   80 1    
    33   16   17 1    
    34   17   18 1    
    35   17   81 1    
    36   17   82 1    
    37   18   19 1    
    38   18   22 1    
    39   18   83 1    
    40   19   20 am   BACKBONE|DICT|INTERRES
    41   19   21 2    
    42   20   84 1    
    43   20   85 1    
    44   22   23 am   BACKBONE|DICT|INTERRES
    45   22   86 1    
    46   23   24 2    
    47   23   25 1    
    48   25   26 1    
    49   25   27 1    
    50   25   87 1    
    51   26   88 1    
    52   26   89 1    
    53   26   90 1    
    54   27   28 am   BACKBONE|DICT|INTERRES
    55   27   91 1    
    56   28   29 2    
    57   28   30 1    
    58   30   31 1    
    59   30   32 1    
    60   30   92 1    
    61   31   93 1    
    62   31   94 1    
    63   31   95 1    
    64   32   33 am   BACKBONE|DICT|INTERRES
    65   32   96 1    
    66   33   34 2    
    67   33   35 1    
    68   35   36 1    
    69   35   37 1    
    70   35   97 1    
    71   36   98 1    
    72   36   99 1    
    73   36  100 1    
    74   37   38 am   BACKBONE|DICT|INTERRES
    75   37  101 1    
    76   38   39 2    
    77   38   40 1    
    78   40   41 1    
    79   40   42 1    
    80   40  102 1    
    81   41  103 1    
    82   41  104 1    
    83   41  105 1    
    84   42   43 am   BACKBONE|DICT|INTERRES
    85   42  106 1    
    86   43   44 2    
    87   43   45 1    
    88   45   46 1    
    89   45   49 1    
    90   45  107 1    
    91   46   47 1    
    92   46  108 1    
    93   46  109 1    
    94   47   48 1    
    95   48  110 1    
    96   48  111 1    
    97   49   50 am   BACKBONE|DICT|INTERRES
    98   49  112 1    
    99   50   51 2    
   100   50   52 1    
   101   52   53 1    
   102   52   54 1    
   103   52  113 1    
   104   53  114 1    
   105   53  115 1    
   106   53  116 1    
   107   54   55 am   BACKBONE|DICT|INTERRES
   108   54  117 1    
   109   55   56 2    
   110   55   57 1    
   111   57   58 1    
   112   57   59 1    
   113   57  118 1    
   114   58  119 1    
   115   58  120 1    
   116   58  121 1    
   117   59   60 am   BACKBONE|DICT|INTERRES
   118   59  122 1    
   119   60   61 2    
   120   60   62 1    
   121   62   63 1    
   122   62   64 1    
   123   62  123 1    
   124   63  124 1    
   125   63  125 1    
   126   63  126 1    
   127   64   65 am   BACKBONE|DICT|INTERRES
   128   64  127 1    
   129   65   66 2    
@<TRIPOS>SUBSTRUCTURE
     1 UNK         1 GROUP             0       ****    0 ROOT    
