@<TRIPOS>MOLECULE
3R135
127   129    1
SMALL
USER_CHARGES


@<TRIPOS>ATOM
      1 CA        -83.0452   27.8136  -68.7569 C.3       0 UNK        -0.1998 
      2 C         -83.2284   26.8859  -69.9484 C.2       0 UNK         0.4909 
      3 O         -84.0549   25.9749  -69.8947 O.2       0 UNK        -0.5240 
      4 N         -82.4630   27.1117  -71.0245 N.am      1 UNK        -0.4739 
      5 CA        -82.5040   26.3198  -72.2625 C.3       1 UNK         0.0864 
      6 C6        -81.8139   27.0452  -73.4449 C.3       11 UNK        -0.0881 
      7 S7        -82.4796   28.7085  -73.8091 S.3       11 UNK        -0.2682 
      8 C8        -81.3271   29.8295  -72.9420 C.3       11 UNK         0.0289 
      9 C9        -79.8983   29.7411  -73.4642 C.ar      11 UNK        -0.0687 
     10 C10       -79.5092   30.4571  -74.6011 C.ar      11 UNK        -0.0823 
     11 C11       -78.1919   30.3976  -75.0736 C.ar      11 UNK        -0.0830 
     12 C12       -77.2688   29.5838  -74.3996 C.ar      11 UNK        -0.1021 
     13 C13       -77.6478   28.8601  -73.2653 C.ar      11 UNK        -0.0753 
     14 C14       -78.9566   28.9577  -72.7928 C.ar      11 UNK        -0.0933 
     15 C15       -76.6536   27.9588  -72.5534 C.3       11 UNK         0.0166 
     16 S16       -75.8628   28.8174  -71.1602 S.3       11 UNK        -0.2615 
     17 C17       -74.6922   27.5425  -70.5730 C.3       11 UNK        -0.0865 
     18 CA        -73.2495   27.7879  -71.0922 C.3       10 UNK         0.0862 
     19 C         -72.2076   26.8487  -70.4154 C.2       10 UNK         0.5551 
     20 N         -71.2824   26.2353  -71.1457 N.am      10 UNK        -0.7319 
     21 O         -72.2285   26.6814  -69.1985 O.2       10 UNK        -0.5018 
     22 N         -73.2052   27.7351  -72.5598 N.am      10 UNK        -0.4509 
     23 C         -72.5631   28.5970  -73.3533 C.2       10 UNK         0.4899 
     24 O         -71.9336   29.5760  -72.9492 O.2       10 UNK        -0.4839 
     25 CA        -72.6546   28.2961  -74.8619 C.3       9 UNK         0.0222 
     26 CB        -71.6273   29.0844  -75.6995 C.3       9 UNK        -0.1966 
     27 N         -72.5970   26.8640  -75.1935 N.am      9 UNK        -0.4218 
     28 C         -71.6343   25.9953  -74.8411 C.2       9 UNK         0.5020 
     29 O         -70.6707   26.2922  -74.1330 O.2       9 UNK        -0.5274 
     30 CA        -71.7762   24.5334  -75.3021 C.3       8 UNK         0.0270 
     31 CB        -72.2548   23.6567  -74.1320 C.3       8 UNK        -0.1976 
     32 N         -72.6664   24.3292  -76.4488 N.am      8 UNK        -0.4313 
     33 C         -72.4167   24.7268  -77.7040 C.2       8 UNK         0.5041 
     34 O         -71.4157   25.3670  -78.0293 O.2       8 UNK        -0.5577 
     35 CA        -73.4376   24.3358  -78.7857 C.3       7 UNK         0.0284 
     36 CB        -74.6052   23.4621  -78.2773 C.3       7 UNK        -0.1958 
     37 N         -73.9823   25.5553  -79.3737 N.am      7 UNK        -0.4454 
     38 C         -73.8211   25.9545  -80.6424 C.2       7 UNK         0.5089 
     39 O         -73.1865   25.3177  -81.4845 O.2       7 UNK        -0.5125 
     40 CA        -74.5050   27.2714  -81.0674 C.3       6 UNK         0.0408 
     41 CB        -75.6212   26.9908  -82.0877 C.3       6 UNK        -0.1791 
     42 N         -75.0770   28.0140  -79.9409 N.am      6 UNK        -0.4762 
     43 C         -74.3840   28.8057  -79.1100 C.2       6 UNK         0.5007 
     44 O         -73.1958   29.0844  -79.2675 O.2       6 UNK        -0.5032 
     45 CA        -75.1295   29.3395  -77.8691 C.3       5 UNK         0.0783 
     46 C46       -75.5927   30.8026  -78.0674 C.3       11 UNK        -0.0857 
     47 S47       -76.0414   31.6022  -76.4873 S.3       11 UNK        -0.2512 
     48 C48       -77.8219   31.2124  -76.3181 C.3       11 UNK         0.0225 
     49 N         -76.2451   28.4708  -77.4727 N.am      5 UNK        -0.4615 
     50 C         -76.1332   27.2441  -76.9541 C.2       4 UNK         0.5053 
     51 O         -75.0602   26.6756  -76.7320 O.2       4 UNK        -0.5105 
     52 CA        -77.4515   26.5147  -76.7006 C.3       4 UNK         0.0263 
     53 CB        -77.9737   25.8698  -77.9979 C.3       4 UNK        -0.1981 
     54 N         -77.2491   25.4904  -75.6816 N.am      4 UNK        -0.4224 
     55 C         -78.2007   25.0622  -74.8467 C.2       3 UNK         0.4895 
     56 O         -79.3626   25.4718  -74.8804 O.2       3 UNK        -0.5091 
     57 CA        -77.8111   24.0072  -73.7990 C.3       3 UNK         0.0250 
     58 CB        -76.3433   24.0925  -73.3279 C.3       3 UNK        -0.1996 
     59 N         -78.7228   24.1462  -72.6666 N.am      3 UNK        -0.4254 
     60 C         -79.1560   23.1641  -71.8702 C.2       2 UNK         0.5004 
     61 O         -78.7495   22.0030  -71.9302 O.2       2 UNK        -0.5226 
     62 CA        -80.2264   23.5356  -70.8252 C.3       2 UNK         0.0269 
     63 CB        -79.5912   23.6606  -69.4304 C.3       2 UNK        -0.1926 
     64 N         -80.9467   24.7785  -71.1303 N.am      2 UNK        -0.4687 
     65 C         -81.8870   24.9136  -72.0797 C.2       1 UNK         0.5165 
     66 O         -82.2658   23.9864  -72.7965 O.2       1 UNK        -0.5079 
     67 H67       -82.7408   27.2424  -67.8802 H         1 UNK         0.0900 
     68 H68       -83.9836   28.3173  -68.5265 H         1 UNK         0.0900 
     69 H69       -82.2891   28.5758  -68.9445 H         1 UNK         0.0900 
     70 H70       -81.8196   27.8882  -71.0206 H         1 UNK         0.2959 
     71 H71       -83.5537   26.1720  -72.5270 H         1 UNK         0.1079 
     72 H72       -80.7395   27.1013  -73.2861 H         1 UNK         0.0837 
     73 H73       -81.9346   26.4552  -74.3559 H         1 UNK         0.0837 
     74 H74       -81.3547   29.6251  -71.8715 H         1 UNK         0.0685 
     75 H75       -81.6892   30.8522  -73.0569 H         1 UNK         0.0685 
     76 H76       -80.2382   31.0681  -75.1163 H         1 UNK         0.1434 
     77 H77       -76.2496   29.5056  -74.7494 H         1 UNK         0.1329 
     78 H78       -79.2433   28.4101  -71.9059 H         1 UNK         0.1335 
     79 H79       -77.1649   27.0696  -72.1824 H         1 UNK         0.0680 
     80 H80       -75.8961   27.6138  -73.2577 H         1 UNK         0.0680 
     81 H81       -74.7131   27.5692  -69.4819 H         1 UNK         0.1032 
     82 H82       -75.0444   26.5483  -70.8533 H         1 UNK         0.1032 
     83 H83       -72.9659   28.7914  -70.7695 H         1 UNK         0.0461 
     84 H84       -70.6144   25.6382  -70.6853 H         1 UNK         0.3453 
     85 H85       -71.2076   26.3955  -72.1435 H         1 UNK         0.3453 
     86 H86       -73.6520   26.9385  -72.9861 H         1 UNK         0.2984 
     87 H87       -73.6511   28.6281  -75.1467 H         1 UNK         0.0554 
     88 H88       -71.7415   28.8784  -76.7639 H         1 UNK         0.0847 
     89 H89       -70.6040   28.8330  -75.4187 H         1 UNK         0.0847 
     90 H90       -71.7495   30.1595  -75.5630 H         1 UNK         0.0847 
     91 H91       -73.3628   26.5267  -75.7710 H         1 UNK         0.3141 
     92 H92       -70.7801   24.1940  -75.5942 H         1 UNK         0.0743 
     93 H93       -71.5740   23.7341  -73.2828 H         1 UNK         0.0784 
     94 H94       -73.2429   23.9531  -73.7802 H         1 UNK         0.0784 
     95 H95       -72.2968   22.6041  -74.4125 H         1 UNK         0.0784 
     96 H96       -73.5104   23.8033  -76.2789 H         1 UNK         0.3213 
     97 H97       -72.8897   23.7594  -79.5341 H         1 UNK         0.0855 
     98 H98       -75.2023   23.9676  -77.5181 H         1 UNK         0.0814 
     99 H99       -74.2452   22.5219  -77.8570 H         1 UNK         0.0814 
    100 H100      -75.2764   23.2015  -79.0959 H         1 UNK         0.0814 
    101 H101      -74.4460   26.1795  -78.7260 H         1 UNK         0.3105 
    102 H102      -73.7483   27.8908  -81.5536 H         1 UNK         0.0547 
    103 H103      -76.4053   26.3601  -81.6670 H         1 UNK         0.0837 
    104 H104      -76.0825   27.9148  -82.4367 H         1 UNK         0.0837 
    105 H105      -75.2281   26.4774  -82.9663 H         1 UNK         0.0837 
    106 H106      -76.0541   27.8538  -79.7442 H         1 UNK         0.3020 
    107 H107      -74.3942   29.3326  -77.0664 H         1 UNK         0.1245 
    108 H108      -76.4214   30.8671  -78.7747 H         1 UNK         0.0781 
    109 H109      -74.7870   31.4009  -78.4982 H         1 UNK         0.0781 
    110 H110      -78.3587   32.1621  -76.2957 H         1 UNK         0.0836 
    111 H111      -78.1837   30.6866  -77.2015 H         1 UNK         0.0836 
    112 H112      -77.1694   28.8466  -77.6220 H         1 UNK         0.3022 
    113 H113      -78.1772   27.2470  -76.3378 H         1 UNK         0.0747 
    114 H114      -78.1534   26.6192  -78.7694 H         1 UNK         0.0793 
    115 H115      -78.9191   25.3538  -77.8290 H         1 UNK         0.0793 
    116 H116      -77.2673   25.1444  -78.4031 H         1 UNK         0.0793 
    117 H117      -76.2956   25.1711  -75.5822 H         1 UNK         0.3047 
    118 H118      -77.9742   23.0328  -74.2645 H         1 UNK         0.0822 
    119 H119      -75.6536   23.8680  -74.1412 H         1 UNK         0.0807 
    120 H120      -76.1418   23.3674  -72.5391 H         1 UNK         0.0807 
    121 H121      -76.0937   25.0784  -72.9388 H         1 UNK         0.0807 
    122 H122      -79.1804   25.0448  -72.6027 H         1 UNK         0.2946 
    123 H123      -80.9495   22.7168  -70.8018 H         1 UNK         0.1144 
    124 H124      -78.8609   24.4697  -69.3895 H         1 UNK         0.0793 
    125 H125      -79.0739   22.7408  -69.1531 H         1 UNK         0.0793 
    126 H126      -80.3455   23.8480  -68.6658 H         1 UNK         0.0793 
    127 H127      -80.7183   25.5870  -70.5704 H         1 UNK         0.2896 
@<TRIPOS>BOND
     1    1    2 1    
     2    1   67 1    
     3    1   68 1    
     4    1   69 1    
     5    2    3 2    
     6    2    4 am   BACKBONE|DICT|INTERRES
     7    4    5 1    
     8    4   70 1    
     9    5    6 1    
    10    5   65 1    
    11    5   71 1    
    12    6    7 1    
    13    6   72 1    
    14    6   73 1    
    15    7    8 1    
    16    8    9 1    
    17    8   74 1    
    18    8   75 1    
    19    9   10 ar   
    20    9   14 ar   
    21   10   11 ar   
    22   10   76 1    
    23   11   12 ar   
    24   11   48 1    
    25   12   13 ar   
    26   12   77 1    
    27   13   14 ar   
    28   13   15 1    
    29   14   78 1    
    30   15   16 1    
    31   15   79 1    
    32   15   80 1    
    33   16   17 1    
    34   17   18 1    
    35   17   81 1    
    36   17   82 1    
    37   18   19 1    
    38   18   22 1    
    39   18   83 1    
    40   19   20 am   BACKBONE|DICT|INTERRES
    41   19   21 2    
    42   20   84 1    
    43   20   85 1    
    44   22   23 am   BACKBONE|DICT|INTERRES
    45   22   86 1    
    46   23   24 2    
    47   23   25 1    
    48   25   26 1    
    49   25   27 1    
    50   25   87 1    
    51   26   88 1    
    52   26   89 1    
    53   26   90 1    
    54   27   28 am   BACKBONE|DICT|INTERRES
    55   27   91 1    
    56   28   29 2    
    57   28   30 1    
    58   30   31 1    
    59   30   32 1    
    60   30   92 1    
    61   31   93 1    
    62   31   94 1    
    63   31   95 1    
    64   32   33 am   BACKBONE|DICT|INTERRES
    65   32   96 1    
    66   33   34 2    
    67   33   35 1    
    68   35   36 1    
    69   35   37 1    
    70   35   97 1    
    71   36   98 1    
    72   36   99 1    
    73   36  100 1    
    74   37   38 am   BACKBONE|DICT|INTERRES
    75   37  101 1    
    76   38   39 2    
    77   38   40 1    
    78   40   41 1    
    79   40   42 1    
    80   40  102 1    
    81   41  103 1    
    82   41  104 1    
    83   41  105 1    
    84   42   43 am   BACKBONE|DICT|INTERRES
    85   42  106 1    
    86   43   44 2    
    87   43   45 1    
    88   45   46 1    
    89   45   49 1    
    90   45  107 1    
    91   46   47 1    
    92   46  108 1    
    93   46  109 1    
    94   47   48 1    
    95   48  110 1    
    96   48  111 1    
    97   49   50 am   BACKBONE|DICT|INTERRES
    98   49  112 1    
    99   50   51 2    
   100   50   52 1    
   101   52   53 1    
   102   52   54 1    
   103   52  113 1    
   104   53  114 1    
   105   53  115 1    
   106   53  116 1    
   107   54   55 am   BACKBONE|DICT|INTERRES
   108   54  117 1    
   109   55   56 2    
   110   55   57 1    
   111   57   58 1    
   112   57   59 1    
   113   57  118 1    
   114   58  119 1    
   115   58  120 1    
   116   58  121 1    
   117   59   60 am   BACKBONE|DICT|INTERRES
   118   59  122 1    
   119   60   61 2    
   120   60   62 1    
   121   62   63 1    
   122   62   64 1    
   123   62  123 1    
   124   63  124 1    
   125   63  125 1    
   126   63  126 1    
   127   64   65 am   BACKBONE|DICT|INTERRES
   128   64  127 1    
   129   65   66 2    
@<TRIPOS>SUBSTRUCTURE
     1 UNK         1 GROUP             0       ****    0 ROOT    
