@<TRIPOS>MOLECULE
3R135
127   129    1
SMALL
USER_CHARGES


@<TRIPOS>ATOM
      1 CA        -85.2075   25.1539  -70.6882 C.3       0 UNK        -0.1998 
      2 C         -84.2423   26.0034  -71.5014 C.2       0 UNK         0.4909 
      3 O         -84.6507   27.0160  -72.0704 O.2       0 UNK        -0.5240 
      4 N         -82.9654   25.6009  -71.5522 N.am      1 UNK        -0.4739 
      5 CA        -81.8942   26.2707  -72.3005 C.3       1 UNK         0.0864 
      6 C6        -80.5061   25.6808  -71.9464 C.3       11 UNK        -0.0881 
      7 S7        -79.9216   26.2659  -70.3206 S.3       11 UNK        -0.2682 
      8 C8        -78.1366   26.5171  -70.6269 C.3       11 UNK         0.0289 
      9 C9        -77.7561   27.8637  -71.2475 C.ar      11 UNK        -0.0687 
     10 C10       -78.5750   28.5216  -72.1736 C.ar      11 UNK        -0.0823 
     11 C11       -78.1665   29.7144  -72.7741 C.ar      11 UNK        -0.0830 
     12 C12       -76.9342   30.2733  -72.4275 C.ar      11 UNK        -0.1021 
     13 C13       -76.1100   29.6404  -71.4936 C.ar      11 UNK        -0.0753 
     14 C14       -76.5240   28.4372  -70.9131 C.ar      11 UNK        -0.0933 
     15 C15       -74.7715   30.2530  -71.1130 C.3       11 UNK         0.0166 
     16 S16       -73.4061   29.4344  -71.9888 S.3       11 UNK        -0.2615 
     17 C17       -71.9676   30.3712  -71.3691 C.3       11 UNK        -0.0865 
     18 CA        -71.0990   30.9541  -72.5150 C.3       10 UNK         0.0862 
     19 C         -70.0039   31.9027  -71.9420 C.2       10 UNK         0.5551 
     20 N         -68.7198   31.5833  -72.0505 N.am      10 UNK        -0.7319 
     21 O         -70.3300   32.9505  -71.3897 O.2       10 UNK        -0.5018 
     22 N         -70.5984   29.8903  -73.4043 N.am      10 UNK        -0.4509 
     23 C         -70.0952   30.0794  -74.6315 C.2       10 UNK         0.4899 
     24 O         -70.0033   31.1809  -75.1740 O.2       10 UNK        -0.4839 
     25 CA        -69.5949   28.8316  -75.3823 C.3       9 UNK         0.0222 
     26 CB        -68.0772   28.6695  -75.1951 C.3       9 UNK        -0.1966 
     27 N         -70.2683   27.5948  -74.9710 N.am      9 UNK        -0.4218 
     28 C         -71.5098   27.2524  -75.3403 C.2       9 UNK         0.5020 
     29 O         -72.2225   27.9398  -76.0746 O.2       9 UNK        -0.5274 
     30 CA        -72.0473   25.9326  -74.7631 C.3       8 UNK         0.0270 
     31 CB        -72.8073   26.1843  -73.4518 C.3       8 UNK        -0.1976 
     32 N         -72.9303   25.2506  -75.7113 N.am      8 UNK        -0.4313 
     33 C         -72.4924   24.5607  -76.7736 C.2       8 UNK         0.5041 
     34 O         -71.2992   24.4044  -77.0404 O.2       8 UNK        -0.5577 
     35 CA        -73.5484   23.9104  -77.6830 C.3       7 UNK         0.0284 
     36 CB        -74.0412   22.5862  -77.0787 C.3       7 UNK        -0.1958 
     37 N         -74.6910   24.7800  -77.9687 N.am      7 UNK        -0.4454 
     38 C         -74.6382   25.8624  -78.7585 C.2       7 UNK         0.5089 
     39 O         -73.6145   26.2564  -79.3181 O.2       7 UNK        -0.5125 
     40 CA        -75.9557   26.6213  -78.9871 C.3       6 UNK         0.0408 
     41 CB        -76.7695   25.9716  -80.1181 C.3       6 UNK        -0.1791 
     42 N         -76.7680   26.6842  -77.7724 N.am      6 UNK        -0.4762 
     43 C         -76.5696   27.5646  -76.7798 C.2       6 UNK         0.5007 
     44 O         -75.7204   28.4546  -76.8206 O.2       6 UNK        -0.5032 
     45 CA        -77.4607   27.4157  -75.5266 C.3       5 UNK         0.0783 
     46 C46       -78.7634   28.2477  -75.6533 C.3       11 UNK        -0.0857 
     47 S47       -78.4916   30.0484  -75.5047 S.3       11 UNK        -0.2512 
     48 C48       -79.0549   30.3908  -73.8072 C.3       11 UNK         0.0225 
     49 N         -77.7566   26.0076  -75.2336 N.am      5 UNK        -0.4615 
     50 C         -76.8392   25.1046  -74.8518 C.2       4 UNK         0.5053 
     51 O         -75.6552   25.3760  -74.6647 O.2       4 UNK        -0.5105 
     52 CA        -77.2882   23.6378  -74.7078 C.3       4 UNK         0.0263 
     53 CB        -77.6525   23.3153  -73.2516 C.3       4 UNK        -0.1981 
     54 N         -78.3969   23.2687  -75.5905 N.am      4 UNK        -0.4224 
     55 C         -78.3504   23.3151  -76.9297 C.2       3 UNK         0.4895 
     56 O         -77.3391   23.6168  -77.5641 O.2       3 UNK        -0.5091 
     57 CA        -79.6595   23.0376  -77.6911 C.3       3 UNK         0.0250 
     58 CB        -79.7138   21.5684  -78.1378 C.3       3 UNK        -0.1996 
     59 N         -80.8897   23.3705  -76.9567 N.am      3 UNK        -0.4254 
     60 C         -81.1937   24.5715  -76.4396 C.2       2 UNK         0.5004 
     61 O         -80.4163   25.5266  -76.4633 O.2       2 UNK        -0.5226 
     62 CA        -82.5743   24.7353  -75.7693 C.3       2 UNK         0.0269 
     63 CB        -83.5081   23.5184  -75.9372 C.3       2 UNK        -0.1926 
     64 N         -82.4237   25.0208  -74.3410 N.am      2 UNK        -0.4687 
     65 C         -82.1303   26.2221  -73.8225 C.2       1 UNK         0.5165 
     66 O         -82.0490   27.2597  -74.4801 O.2       1 UNK        -0.5079 
     67 H67       -84.7128   24.2964  -70.2325 H         1 UNK         0.0900 
     68 H68       -85.6530   25.7502  -69.8923 H         1 UNK         0.0900 
     69 H69       -86.0094   24.7831  -71.3260 H         1 UNK         0.0900 
     70 H70       -82.6893   24.7772  -71.0369 H         1 UNK         0.2959 
     71 H71       -81.9082   27.3271  -72.0214 H         1 UNK         0.1079 
     72 H72       -80.5457   24.5905  -71.9280 H         1 UNK         0.0837 
     73 H73       -79.7611   25.9331  -72.7034 H         1 UNK         0.0837 
     74 H74       -77.6301   26.4075  -69.6667 H         1 UNK         0.0685 
     75 H75       -77.7573   25.7147  -71.2606 H         1 UNK         0.0685 
     76 H76       -79.5323   28.1116  -72.4493 H         1 UNK         0.1434 
     77 H77       -76.6139   31.1956  -72.8929 H         1 UNK         0.1329 
     78 H78       -75.8734   27.9408  -70.2058 H         1 UNK         0.1335 
     79 H79       -74.6186   30.1637  -70.0363 H         1 UNK         0.0680 
     80 H80       -74.7614   31.3199  -71.3426 H         1 UNK         0.0680 
     81 H81       -71.3719   29.7109  -70.7362 H         1 UNK         0.1032 
     82 H82       -72.3203   31.1717  -70.7155 H         1 UNK         0.1032 
     83 H83       -71.7476   31.5902  -73.1208 H         1 UNK         0.0461 
     84 H84       -68.0214   32.2073  -71.6780 H         1 UNK         0.3453 
     85 H85       -68.4439   30.7278  -72.5040 H         1 UNK         0.3453 
     86 H86       -70.6500   28.9507  -73.0424 H         1 UNK         0.2984 
     87 H87       -69.7870   28.9902  -76.4458 H         1 UNK         0.0554 
     88 H88       -67.5467   29.5681  -75.5138 H         1 UNK         0.0847 
     89 H89       -67.6902   27.8416  -75.7895 H         1 UNK         0.0847 
     90 H90       -67.8123   28.4878  -74.1528 H         1 UNK         0.0847 
     91 H91       -69.7482   26.9705  -74.3705 H         1 UNK         0.3141 
     92 H92       -71.2043   25.2731  -74.5450 H         1 UNK         0.0743 
     93 H93       -73.6509   26.8597  -73.6023 H         1 UNK         0.0784 
     94 H94       -73.1954   25.2564  -73.0315 H         1 UNK         0.0784 
     95 H95       -72.1582   26.6348  -72.7003 H         1 UNK         0.0784 
     96 H96       -73.9295   25.3482  -75.5488 H         1 UNK         0.3213 
     97 H97       -73.0653   23.6807  -78.6354 H         1 UNK         0.0855 
     98 H98       -74.4775   22.7324  -76.0917 H         1 UNK         0.0814 
     99 H99       -73.2159   21.8820  -76.9654 H         1 UNK         0.0814 
    100 H100      -74.7900   22.1104  -77.7125 H         1 UNK         0.0814 
    101 H101      -75.5975   24.4833  -77.6186 H         1 UNK         0.3105 
    102 H102      -75.7073   27.6381  -79.2991 H         1 UNK         0.0547 
    103 H103      -77.6833   26.5302  -80.3207 H         1 UNK         0.0837 
    104 H104      -77.0493   24.9443  -79.8831 H         1 UNK         0.0837 
    105 H105      -76.1940   25.9466  -81.0444 H         1 UNK         0.0837 
    106 H106      -77.4574   25.9552  -77.6451 H         1 UNK         0.3020 
    107 H107      -76.8871   27.8015  -74.6796 H         1 UNK         0.1245 
    108 H108      -79.4770   27.9434  -74.8879 H         1 UNK         0.0781 
    109 H109      -79.2623   28.0479  -76.6036 H         1 UNK         0.0781 
    110 H110      -80.0936   30.0742  -73.6976 H         1 UNK         0.0836 
    111 H111      -79.0479   31.4694  -73.6433 H         1 UNK         0.0836 
    112 H112      -78.7004   25.7007  -75.4489 H         1 UNK         0.3022 
    113 H113      -76.4379   23.0119  -74.9795 H         1 UNK         0.0747 
    114 H114      -77.8435   22.2505  -73.1174 H         1 UNK         0.0793 
    115 H115      -76.8384   23.5839  -72.5765 H         1 UNK         0.0793 
    116 H116      -78.5380   23.8576  -72.9280 H         1 UNK         0.0793 
    117 H117      -79.2681   23.0086  -75.1527 H         1 UNK         0.3047 
    118 H118      -79.6413   23.6644  -78.5852 H         1 UNK         0.0822 
    119 H119      -80.5732   21.3796  -78.7815 H         1 UNK         0.0807 
    120 H120      -79.7741   20.8890  -77.2867 H         1 UNK         0.0807 
    121 H121      -78.8220   21.2998  -78.7066 H         1 UNK         0.0807 
    122 H122      -81.5800   22.6368  -76.8852 H         1 UNK         0.2946 
    123 H123      -83.0522   25.5906  -76.2528 H         1 UNK         0.1144 
    124 H124      -83.1156   22.6241  -75.4514 H         1 UNK         0.0793 
    125 H125      -83.6733   23.2866  -76.9905 H         1 UNK         0.0793 
    126 H126      -84.4883   23.7203  -75.5044 H         1 UNK         0.0793 
    127 H127      -82.4843   24.2327  -73.7129 H         1 UNK         0.2896 
@<TRIPOS>BOND
     1    1    2 1    
     2    1   67 1    
     3    1   68 1    
     4    1   69 1    
     5    2    3 2    
     6    2    4 am   BACKBONE|DICT|INTERRES
     7    4    5 1    
     8    4   70 1    
     9    5    6 1    
    10    5   65 1    
    11    5   71 1    
    12    6    7 1    
    13    6   72 1    
    14    6   73 1    
    15    7    8 1    
    16    8    9 1    
    17    8   74 1    
    18    8   75 1    
    19    9   10 ar   
    20    9   14 ar   
    21   10   11 ar   
    22   10   76 1    
    23   11   12 ar   
    24   11   48 1    
    25   12   13 ar   
    26   12   77 1    
    27   13   14 ar   
    28   13   15 1    
    29   14   78 1    
    30   15   16 1    
    31   15   79 1    
    32   15   80 1    
    33   16   17 1    
    34   17   18 1    
    35   17   81 1    
    36   17   82 1    
    37   18   19 1    
    38   18   22 1    
    39   18   83 1    
    40   19   20 am   BACKBONE|DICT|INTERRES
    41   19   21 2    
    42   20   84 1    
    43   20   85 1    
    44   22   23 am   BACKBONE|DICT|INTERRES
    45   22   86 1    
    46   23   24 2    
    47   23   25 1    
    48   25   26 1    
    49   25   27 1    
    50   25   87 1    
    51   26   88 1    
    52   26   89 1    
    53   26   90 1    
    54   27   28 am   BACKBONE|DICT|INTERRES
    55   27   91 1    
    56   28   29 2    
    57   28   30 1    
    58   30   31 1    
    59   30   32 1    
    60   30   92 1    
    61   31   93 1    
    62   31   94 1    
    63   31   95 1    
    64   32   33 am   BACKBONE|DICT|INTERRES
    65   32   96 1    
    66   33   34 2    
    67   33   35 1    
    68   35   36 1    
    69   35   37 1    
    70   35   97 1    
    71   36   98 1    
    72   36   99 1    
    73   36  100 1    
    74   37   38 am   BACKBONE|DICT|INTERRES
    75   37  101 1    
    76   38   39 2    
    77   38   40 1    
    78   40   41 1    
    79   40   42 1    
    80   40  102 1    
    81   41  103 1    
    82   41  104 1    
    83   41  105 1    
    84   42   43 am   BACKBONE|DICT|INTERRES
    85   42  106 1    
    86   43   44 2    
    87   43   45 1    
    88   45   46 1    
    89   45   49 1    
    90   45  107 1    
    91   46   47 1    
    92   46  108 1    
    93   46  109 1    
    94   47   48 1    
    95   48  110 1    
    96   48  111 1    
    97   49   50 am   BACKBONE|DICT|INTERRES
    98   49  112 1    
    99   50   51 2    
   100   50   52 1    
   101   52   53 1    
   102   52   54 1    
   103   52  113 1    
   104   53  114 1    
   105   53  115 1    
   106   53  116 1    
   107   54   55 am   BACKBONE|DICT|INTERRES
   108   54  117 1    
   109   55   56 2    
   110   55   57 1    
   111   57   58 1    
   112   57   59 1    
   113   57  118 1    
   114   58  119 1    
   115   58  120 1    
   116   58  121 1    
   117   59   60 am   BACKBONE|DICT|INTERRES
   118   59  122 1    
   119   60   61 2    
   120   60   62 1    
   121   62   63 1    
   122   62   64 1    
   123   62  123 1    
   124   63  124 1    
   125   63  125 1    
   126   63  126 1    
   127   64   65 am   BACKBONE|DICT|INTERRES
   128   64  127 1    
   129   65   66 2    
@<TRIPOS>SUBSTRUCTURE
     1 UNK         1 GROUP             0       ****    0 ROOT    
