@<TRIPOS>MOLECULE
3R135
127   129    1
SMALL
USER_CHARGES


@<TRIPOS>ATOM
      1 CA        -85.1780   27.6093  -72.1962 C.3       0 UNK        -0.1998 
      2 C         -83.8295   27.6454  -72.8992 C.2       0 UNK         0.4909 
      3 O         -83.6665   28.3779  -73.8753 O.2       0 UNK        -0.5240 
      4 N         -82.8614   26.8576  -72.4128 N.am      1 UNK        -0.4739 
      5 CA        -81.4971   26.7747  -72.9555 C.3       1 UNK         0.0864 
      6 C6        -80.4960   26.2046  -71.9205 C.3       11 UNK        -0.0881 
      7 S7        -80.4469   27.1731  -70.3740 S.3       11 UNK        -0.2682 
      8 C8        -78.6491   27.2647  -70.0496 C.3       11 UNK         0.0289 
      9 C9        -77.8266   28.1578  -70.9843 C.ar      11 UNK        -0.0687 
     10 C10       -78.3978   28.9548  -71.9866 C.ar      11 UNK        -0.0823 
     11 C11       -77.5996   29.7524  -72.8117 C.ar      11 UNK        -0.0830 
     12 C12       -76.2164   29.7699  -72.6197 C.ar      11 UNK        -0.1021 
     13 C13       -75.6314   28.9963  -71.6148 C.ar      11 UNK        -0.0753 
     14 C14       -76.4389   28.1891  -70.8087 C.ar      11 UNK        -0.0933 
     15 C15       -74.1294   29.0537  -71.3932 C.3       11 UNK         0.0166 
     16 S16       -73.6865   30.5477  -70.4548 S.3       11 UNK        -0.2615 
     17 C17       -71.8640   30.4705  -70.4492 C.3       11 UNK        -0.0865 
     18 CA        -71.2333   31.4317  -71.5041 C.3       10 UNK         0.0862 
     19 C         -69.7077   31.7029  -71.2990 C.2       10 UNK         0.5551 
     20 N         -69.2166   31.7306  -70.0666 N.am      10 UNK        -0.7319 
     21 O         -68.9655   31.9533  -72.2475 O.2       10 UNK        -0.5018 
     22 N         -71.5767   31.0441  -72.8854 N.am      10 UNK        -0.4509 
     23 C         -71.1452   29.9451  -73.5179 C.2       10 UNK         0.4899 
     24 O         -70.4093   29.0966  -73.0060 O.2       10 UNK        -0.4839 
     25 CA        -71.6054   29.7798  -74.9766 C.3       9 UNK         0.0222 
     26 CB        -70.8067   30.7106  -75.9053 C.3       9 UNK        -0.1966 
     27 N         -71.4132   28.3974  -75.4155 N.am      9 UNK        -0.4218 
     28 C         -72.2757   27.3992  -75.1926 C.2       9 UNK         0.5020 
     29 O         -73.4048   27.5486  -74.7241 O.2       9 UNK        -0.5274 
     30 CA        -71.7552   25.9902  -75.4921 C.3       8 UNK         0.0270 
     31 CB        -71.3946   25.2530  -74.1899 C.3       8 UNK        -0.1976 
     32 N         -72.7547   25.2233  -76.2320 N.am      8 UNK        -0.4313 
     33 C         -72.4548   24.3129  -77.1681 C.2       8 UNK         0.5041 
     34 O         -71.3021   24.0241  -77.4957 O.2       8 UNK        -0.5577 
     35 CA        -73.6192   23.5913  -77.8657 C.3       7 UNK         0.0284 
     36 CB        -74.0965   22.3969  -77.0241 C.3       7 UNK        -0.1958 
     37 N         -74.7528   24.4640  -78.1700 N.am      7 UNK        -0.4454 
     38 C         -74.7370   25.4667  -79.0594 C.2       7 UNK         0.5089 
     39 O         -73.7542   25.7738  -79.7348 O.2       7 UNK        -0.5125 
     40 CA        -76.0428   26.2620  -79.2241 C.3       6 UNK         0.0408 
     41 CB        -76.9968   25.5579  -80.2026 C.3       6 UNK        -0.1791 
     42 N         -76.7129   26.4723  -77.9394 N.am      6 UNK        -0.4762 
     43 C         -76.3290   27.3899  -77.0387 C.2       6 UNK         0.5007 
     44 O         -75.4310   28.2054  -77.2509 O.2       6 UNK        -0.5032 
     45 CA        -77.0599   27.3887  -75.6756 C.3       5 UNK         0.0783 
     46 C46       -78.2471   28.3865  -75.6651 C.3       11 UNK        -0.0857 
     47 S47       -77.7112   30.1294  -75.5725 S.3       11 UNK        -0.2512 
     48 C48       -78.2369   30.6121  -73.8956 C.3       11 UNK         0.0225 
     49 N         -77.4930   26.0431  -75.2726 N.am      5 UNK        -0.4615 
     50 C         -76.6552   25.0415  -74.9653 C.2       4 UNK         0.5053 
     51 O         -75.4296   25.1423  -74.9876 O.2       4 UNK        -0.5105 
     52 CA        -77.2769   23.6754  -74.6287 C.3       4 UNK         0.0263 
     53 CB        -77.7333   23.6169  -73.1636 C.3       4 UNK        -0.1981 
     54 N         -78.3860   23.2908  -75.5039 N.am      4 UNK        -0.4224 
     55 C         -78.3224   23.1497  -76.8333 C.2       3 UNK         0.4895 
     56 O         -77.3086   23.3799  -77.4903 O.2       3 UNK        -0.5091 
     57 CA        -79.5987   22.6994  -77.5683 C.3       3 UNK         0.0250 
     58 CB        -79.7759   21.1706  -77.4893 C.3       3 UNK        -0.1996 
     59 N         -80.8167   23.4162  -77.1611 N.am      3 UNK        -0.4254 
     60 C         -81.4393   23.4016  -75.9742 C.2       2 UNK         0.5004 
     61 O         -81.1078   22.6924  -75.0207 O.2       2 UNK        -0.5226 
     62 CA        -82.6042   24.3904  -75.8078 C.3       2 UNK         0.0269 
     63 CB        -83.9482   23.6451  -75.7738 C.3       2 UNK        -0.1926 
     64 N         -82.4713   25.2036  -74.5954 N.am      2 UNK        -0.4687 
     65 C         -81.4195   25.9752  -74.2750 C.2       1 UNK         0.5165 
     66 O         -80.4077   26.0729  -74.9726 O.2       1 UNK        -0.5079 
     67 H67       -85.4356   28.6023  -71.8289 H         1 UNK         0.0900 
     68 H68       -85.9549   27.2904  -72.8904 H         1 UNK         0.0900 
     69 H69       -85.1779   26.9243  -71.3486 H         1 UNK         0.0900 
     70 H70       -83.0401   26.2939  -71.5933 H         1 UNK         0.2959 
     71 H71       -81.1797   27.7890  -73.2058 H         1 UNK         0.1079 
     72 H72       -79.4922   26.1948  -72.3479 H         1 UNK         0.0837 
     73 H73       -80.7373   25.1689  -71.6732 H         1 UNK         0.0837 
     74 H74       -78.5146   27.6263  -69.0292 H         1 UNK         0.0685 
     75 H75       -78.2425   26.2523  -70.0718 H         1 UNK         0.0685 
     76 H76       -79.4670   28.9698  -72.1299 H         1 UNK         0.1434 
     77 H77       -75.5944   30.3939  -73.2472 H         1 UNK         0.1329 
     78 H78       -75.9852   27.5918  -70.0294 H         1 UNK         0.1335 
     79 H79       -73.7820   28.1684  -70.8584 H         1 UNK         0.0680 
     80 H80       -73.6230   29.0531  -72.3580 H         1 UNK         0.0680 
     81 H81       -71.5596   30.7410  -69.4380 H         1 UNK         0.1032 
     82 H82       -71.5255   29.4436  -70.5956 H         1 UNK         0.1032 
     83 H83       -71.6918   32.4116  -71.3659 H         1 UNK         0.0461 
     84 H84       -68.2363   31.9290  -69.9393 H         1 UNK         0.3453 
     85 H85       -69.8005   31.5703  -69.2617 H         1 UNK         0.3453 
     86 H86       -72.1507   31.7031  -73.3908 H         1 UNK         0.2984 
     87 H87       -72.6646   30.0385  -75.0432 H         1 UNK         0.0554 
     88 H88       -69.7349   30.5143  -75.8513 H         1 UNK         0.0847 
     89 H89       -70.9575   31.7575  -75.6389 H         1 UNK         0.0847 
     90 H90       -71.1172   30.5961  -76.9441 H         1 UNK         0.0847 
     91 H91       -70.4879   28.1652  -75.7467 H         1 UNK         0.3141 
     92 H92       -70.8507   26.0869  -76.0969 H         1 UNK         0.0743 
     93 H93       -72.2730   25.1025  -73.5606 H         1 UNK         0.0784 
     94 H94       -70.9568   24.2759  -74.3946 H         1 UNK         0.0784 
     95 H95       -70.6677   25.8209  -73.6074 H         1 UNK         0.0784 
     96 H96       -73.7257   25.3990  -75.9771 H         1 UNK         0.3213 
     97 H97       -73.2430   23.2036  -78.8149 H         1 UNK         0.0855 
     98 H98       -74.4792   22.7157  -76.0548 H         1 UNK         0.0814 
     99 H99       -73.2779   21.7005  -76.8374 H         1 UNK         0.0814 
    100 H100      -74.8859   21.8418  -77.5313 H         1 UNK         0.0814 
    101 H101      -75.6352   24.2364  -77.7188 H         1 UNK         0.3105 
    102 H102      -75.7909   27.2353  -79.6511 H         1 UNK         0.0547 
    103 H103      -76.5265   25.4339  -81.1789 H         1 UNK         0.0837 
    104 H104      -77.2835   24.5656  -79.8546 H         1 UNK         0.0837 
    105 H105      -77.9077   26.1368  -80.3546 H         1 UNK         0.0837 
    106 H106      -77.4269   25.8066  -77.6783 H         1 UNK         0.3020 
    107 H107      -76.3303   27.7159  -74.9293 H         1 UNK         0.1245 
    108 H108      -78.8903   28.1891  -74.8077 H         1 UNK         0.0781 
    109 H109      -78.8826   28.2529  -76.5427 H         1 UNK         0.0781 
    110 H110      -79.3259   30.5697  -73.8409 H         1 UNK         0.0836 
    111 H111      -77.9643   31.6550  -73.7277 H         1 UNK         0.0836 
    112 H112      -78.4968   25.8869  -75.2269 H         1 UNK         0.3022 
    113 H113      -76.4929   22.9275  -74.7600 H         1 UNK         0.0747 
    114 H114      -77.9598   22.5937  -72.8636 H         1 UNK         0.0793 
    115 H115      -76.9586   23.9883  -72.4910 H         1 UNK         0.0793 
    116 H116      -78.6285   24.2134  -73.0007 H         1 UNK         0.0793 
    117 H117      -79.2804   23.0855  -75.0643 H         1 UNK         0.3047 
    118 H118      -79.4507   22.9518  -78.6198 H         1 UNK         0.0822 
    119 H119      -80.6399   20.8417  -78.0667 H         1 UNK         0.0807 
    120 H120      -79.9059   20.8229  -76.4642 H         1 UNK         0.0807 
    121 H121      -78.9018   20.6585  -77.8941 H         1 UNK         0.0807 
    122 H122      -81.1694   24.0587  -77.8575 H         1 UNK         0.2946 
    123 H123      -82.6110   25.0771  -76.6571 H         1 UNK         0.1144 
    124 H124      -84.0858   23.0465  -76.6755 H         1 UNK         0.0793 
    125 H125      -84.7872   24.3388  -75.7160 H         1 UNK         0.0793 
    126 H126      -84.0115   22.9680  -74.9208 H         1 UNK         0.0793 
    127 H127      -83.2429   25.1760  -73.9456 H         1 UNK         0.2896 
@<TRIPOS>BOND
     1    1    2 1    
     2    1   67 1    
     3    1   68 1    
     4    1   69 1    
     5    2    3 2    
     6    2    4 am   BACKBONE|DICT|INTERRES
     7    4    5 1    
     8    4   70 1    
     9    5    6 1    
    10    5   65 1    
    11    5   71 1    
    12    6    7 1    
    13    6   72 1    
    14    6   73 1    
    15    7    8 1    
    16    8    9 1    
    17    8   74 1    
    18    8   75 1    
    19    9   10 ar   
    20    9   14 ar   
    21   10   11 ar   
    22   10   76 1    
    23   11   12 ar   
    24   11   48 1    
    25   12   13 ar   
    26   12   77 1    
    27   13   14 ar   
    28   13   15 1    
    29   14   78 1    
    30   15   16 1    
    31   15   79 1    
    32   15   80 1    
    33   16   17 1    
    34   17   18 1    
    35   17   81 1    
    36   17   82 1    
    37   18   19 1    
    38   18   22 1    
    39   18   83 1    
    40   19   20 am   BACKBONE|DICT|INTERRES
    41   19   21 2    
    42   20   84 1    
    43   20   85 1    
    44   22   23 am   BACKBONE|DICT|INTERRES
    45   22   86 1    
    46   23   24 2    
    47   23   25 1    
    48   25   26 1    
    49   25   27 1    
    50   25   87 1    
    51   26   88 1    
    52   26   89 1    
    53   26   90 1    
    54   27   28 am   BACKBONE|DICT|INTERRES
    55   27   91 1    
    56   28   29 2    
    57   28   30 1    
    58   30   31 1    
    59   30   32 1    
    60   30   92 1    
    61   31   93 1    
    62   31   94 1    
    63   31   95 1    
    64   32   33 am   BACKBONE|DICT|INTERRES
    65   32   96 1    
    66   33   34 2    
    67   33   35 1    
    68   35   36 1    
    69   35   37 1    
    70   35   97 1    
    71   36   98 1    
    72   36   99 1    
    73   36  100 1    
    74   37   38 am   BACKBONE|DICT|INTERRES
    75   37  101 1    
    76   38   39 2    
    77   38   40 1    
    78   40   41 1    
    79   40   42 1    
    80   40  102 1    
    81   41  103 1    
    82   41  104 1    
    83   41  105 1    
    84   42   43 am   BACKBONE|DICT|INTERRES
    85   42  106 1    
    86   43   44 2    
    87   43   45 1    
    88   45   46 1    
    89   45   49 1    
    90   45  107 1    
    91   46   47 1    
    92   46  108 1    
    93   46  109 1    
    94   47   48 1    
    95   48  110 1    
    96   48  111 1    
    97   49   50 am   BACKBONE|DICT|INTERRES
    98   49  112 1    
    99   50   51 2    
   100   50   52 1    
   101   52   53 1    
   102   52   54 1    
   103   52  113 1    
   104   53  114 1    
   105   53  115 1    
   106   53  116 1    
   107   54   55 am   BACKBONE|DICT|INTERRES
   108   54  117 1    
   109   55   56 2    
   110   55   57 1    
   111   57   58 1    
   112   57   59 1    
   113   57  118 1    
   114   58  119 1    
   115   58  120 1    
   116   58  121 1    
   117   59   60 am   BACKBONE|DICT|INTERRES
   118   59  122 1    
   119   60   61 2    
   120   60   62 1    
   121   62   63 1    
   122   62   64 1    
   123   62  123 1    
   124   63  124 1    
   125   63  125 1    
   126   63  126 1    
   127   64   65 am   BACKBONE|DICT|INTERRES
   128   64  127 1    
   129   65   66 2    
@<TRIPOS>SUBSTRUCTURE
     1 UNK         1 GROUP             0       ****    0 ROOT    
