@<TRIPOS>MOLECULE
3R135
127   129    1
SMALL
USER_CHARGES


@<TRIPOS>ATOM
      1 CA        -81.3876   29.2034  -69.6967 C.3       0 UNK        -0.1998 
      2 C         -82.1872   28.8531  -70.9427 C.2       0 UNK         0.4909 
      3 O         -83.2241   29.4654  -71.1995 O.2       0 UNK        -0.5240 
      4 N         -81.7124   27.8730  -71.7156 N.am      1 UNK        -0.4739 
      5 CA        -82.3261   27.3599  -72.9371 C.3       1 UNK         0.0864 
      6 C6        -82.2414   28.3535  -74.1366 C.3       11 UNK        -0.0881 
      7 S7        -80.6049   28.5155  -74.9369 S.3       11 UNK        -0.2682 
      8 C8        -79.8394   29.8800  -74.0102 C.3       11 UNK         0.0289 
      9 C9        -78.4332   29.4988  -73.5768 C.ar      11 UNK        -0.0687 
     10 C10       -78.2521   28.6745  -72.4651 C.ar      11 UNK        -0.0823 
     11 C11       -76.9732   28.2855  -72.0635 C.ar      11 UNK        -0.0830 
     12 C12       -75.8616   28.7469  -72.7744 C.ar      11 UNK        -0.1021 
     13 C13       -76.0280   29.5688  -73.8942 C.ar      11 UNK        -0.0753 
     14 C14       -77.3164   29.9443  -74.2896 C.ar      11 UNK        -0.0933 
     15 C15       -74.8210   30.0157  -74.7050 C.3       11 UNK         0.0166 
     16 S16       -74.3909   31.7546  -74.3826 S.3       11 UNK        -0.2615 
     17 C17       -73.5820   31.6383  -72.7488 C.3       11 UNK        -0.0865 
     18 CA        -72.0827   32.0580  -72.7855 C.3       10 UNK         0.0862 
     19 C         -71.4583   32.1669  -71.3594 C.2       10 UNK         0.5551 
     20 N         -70.1750   31.8797  -71.1765 N.am      10 UNK        -0.7319 
     21 O         -72.1348   32.5506  -70.4080 O.2       10 UNK        -0.5018 
     22 N         -71.2803   31.2868  -73.7565 N.am      10 UNK        -0.4509 
     23 C         -71.0393   29.9704  -73.7156 C.2       10 UNK         0.4899 
     24 O         -71.4565   29.2140  -72.8357 O.2       10 UNK        -0.4839 
     25 CA        -70.1305   29.4202  -74.8289 C.3       9 UNK         0.0222 
     26 CB        -68.6520   29.5430  -74.4241 C.3       9 UNK        -0.1966 
     27 N         -70.4315   28.0168  -75.1171 N.am      9 UNK        -0.4218 
     28 C         -71.5127   27.5982  -75.7864 C.2       9 UNK         0.5020 
     29 O         -72.3066   28.3616  -76.3414 O.2       9 UNK        -0.5274 
     30 CA        -71.7276   26.0746  -75.8294 C.3       8 UNK         0.0270 
     31 CB        -71.9273   25.5003  -74.4134 C.3       8 UNK        -0.1976 
     32 N         -72.8937   25.7323  -76.6462 N.am      8 UNK        -0.4313 
     33 C         -72.8565   25.4848  -77.9628 C.2       8 UNK         0.5041 
     34 O         -71.8129   25.4692  -78.6190 O.2       8 UNK        -0.5577 
     35 CA        -74.1826   25.1703  -78.6858 C.3       7 UNK         0.0284 
     36 CB        -74.2663   23.6702  -79.0150 C.3       7 UNK        -0.1958 
     37 N         -75.3813   25.5522  -77.9380 N.am      7 UNK        -0.4454 
     38 C         -75.8071   26.8083  -77.7478 C.2       7 UNK         0.5089 
     39 O         -75.2829   27.7959  -78.2624 O.2       7 UNK        -0.5125 
     40 CA        -77.0223   26.9943  -76.8177 C.3       6 UNK         0.0408 
     41 CB        -78.3138   27.0048  -77.6479 C.3       6 UNK        -0.1791 
     42 N         -77.1279   25.9867  -75.7521 N.am      6 UNK        -0.4762 
     43 C         -76.1783   25.7408  -74.8337 C.2       6 UNK         0.5007 
     44 O         -75.0911   26.3142  -74.8153 O.2       6 UNK        -0.5032 
     45 CA        -76.4402   24.6125  -73.8213 C.3       5 UNK         0.0783 
     46 C46       -77.2268   25.0909  -72.5741 C.3       11 UNK        -0.0857 
     47 S47       -76.0888   25.7452  -71.3006 S.3       11 UNK        -0.2512 
     48 C48       -76.8078   27.3622  -70.8646 C.3       11 UNK         0.0225 
     49 N         -77.0691   23.4700  -74.4868 N.am      5 UNK        -0.4615 
     50 C         -76.3748   22.4945  -75.0919 C.2       4 UNK         0.5053 
     51 O         -75.1459   22.4218  -75.0836 O.2       4 UNK        -0.5105 
     52 CA        -77.1731   21.4185  -75.8480 C.3       4 UNK         0.0263 
     53 CB        -77.5245   20.2519  -74.9107 C.3       4 UNK        -0.1981 
     54 N         -78.3963   21.9271  -76.4688 N.am      4 UNK        -0.4224 
     55 C         -78.4371   22.8503  -77.4398 C.2       3 UNK         0.4895 
     56 O         -77.4391   23.3583  -77.9502 O.2       3 UNK        -0.5091 
     57 CA        -79.8335   23.3139  -77.8876 C.3       3 UNK         0.0250 
     58 CB        -80.3429   22.4369  -79.0425 C.3       3 UNK        -0.1996 
     59 N         -80.8346   23.3397  -76.8137 N.am      3 UNK        -0.4254 
     60 C         -80.7356   24.0390  -75.6731 C.2       2 UNK         0.5004 
     61 O         -79.7366   24.6897  -75.3569 O.2       2 UNK        -0.5226 
     62 CA        -81.9436   23.9417  -74.7253 C.3       2 UNK         0.0269 
     63 CB        -81.7112   22.8739  -73.6364 C.3       2 UNK        -0.1926 
     64 N         -82.3319   25.2441  -74.1644 N.am      2 UNK        -0.4687 
     65 C         -81.7168   25.9711  -73.2197 C.2       1 UNK         0.5165 
     66 O         -80.7345   25.5976  -72.5698 O.2       1 UNK        -0.5079 
     67 H67       -80.5178   28.5580  -69.5749 H         1 UNK         0.0900 
     68 H68       -81.0392   30.2344  -69.7531 H         1 UNK         0.0900 
     69 H69       -82.0114   29.1019  -68.8091 H         1 UNK         0.0900 
     70 H70       -80.9002   27.3334  -71.4403 H         1 UNK         0.2959 
     71 H71       -83.3817   27.1916  -72.7115 H         1 UNK         0.1079 
     72 H72       -82.5969   29.3419  -73.8428 H         1 UNK         0.0837 
     73 H73       -82.9367   28.0307  -74.9127 H         1 UNK         0.0837 
     74 H74       -80.4348   30.1314  -73.1319 H         1 UNK         0.0685 
     75 H75       -79.8232   30.7731  -74.6366 H         1 UNK         0.0685 
     76 H76       -79.1135   28.3173  -71.9238 H         1 UNK         0.1434 
     77 H77       -74.8695   28.4355  -72.4767 H         1 UNK         0.1329 
     78 H78       -77.4474   30.5715  -75.1607 H         1 UNK         0.1335 
     79 H79       -73.9607   29.3789  -74.4950 H         1 UNK         0.0680 
     80 H80       -75.0338   29.8919  -75.7681 H         1 UNK         0.0680 
     81 H81       -73.6848   30.6310  -72.3444 H         1 UNK         0.1032 
     82 H82       -74.1427   32.2851  -72.0718 H         1 UNK         0.1032 
     83 H83       -72.0566   33.0822  -73.1592 H         1 UNK         0.0461 
     84 H84       -69.7760   31.9637  -70.2548 H         1 UNK         0.3453 
     85 H85       -69.6062   31.5740  -71.9488 H         1 UNK         0.3453 
     86 H86       -70.8779   31.8287  -74.5078 H         1 UNK         0.2984 
     87 H87       -70.2921   30.0040  -75.7379 H         1 UNK         0.0554 
     88 H88       -68.3787   30.5838  -74.2460 H         1 UNK         0.0847 
     89 H89       -67.9929   29.1689  -75.2080 H         1 UNK         0.0847 
     90 H90       -68.4349   28.9886  -73.5099 H         1 UNK         0.0847 
     91 H91       -69.8488   27.3297  -74.6616 H         1 UNK         0.3141 
     92 H92       -70.8351   25.6171  -76.2614 H         1 UNK         0.0743 
     93 H93       -71.0079   25.5572  -73.8301 H         1 UNK         0.0784 
     94 H94       -72.6924   26.0446  -73.8586 H         1 UNK         0.0784 
     95 H95       -72.2213   24.4508  -74.4459 H         1 UNK         0.0784 
     96 H96       -73.7943   25.8367  -76.1862 H         1 UNK         0.3213 
     97 H97       -74.1775   25.7270  -79.6252 H         1 UNK         0.0855 
     98 H98       -74.3089   23.0622  -78.1101 H         1 UNK         0.0814 
     99 H99       -73.3978   23.3440  -79.5889 H         1 UNK         0.0814 
    100 H100      -75.1505   23.4440  -79.6115 H         1 UNK         0.0814 
    101 H101      -75.9380   24.7977  -77.5507 H         1 UNK         0.3105 
    102 H102      -76.9221   27.9637  -76.3278 H         1 UNK         0.0547 
    103 H103      -79.2021   27.0212  -77.0180 H         1 UNK         0.0837 
    104 H104      -78.3769   26.1319  -78.2961 H         1 UNK         0.0837 
    105 H105      -78.3519   27.8855  -78.2897 H         1 UNK         0.0837 
    106 H106      -78.0122   25.4883  -75.6816 H         1 UNK         0.3020 
    107 H107      -75.4562   24.2843  -73.4762 H         1 UNK         0.1245 
    108 H108      -77.7585   24.2539  -72.1189 H         1 UNK         0.0781 
    109 H109      -77.9977   25.8177  -72.8360 H         1 UNK         0.0781 
    110 H110      -76.1629   27.8470  -70.1305 H         1 UNK         0.0836 
    111 H111      -77.7637   27.1946  -70.3659 H         1 UNK         0.0836 
    112 H112      -78.0751   23.5100  -74.5956 H         1 UNK         0.3022 
    113 H113      -76.5324   21.0364  -76.6458 H         1 UNK         0.0747 
    114 H114      -78.0122   19.4406  -75.4514 H         1 UNK         0.0793 
    115 H115      -76.6261   19.8377  -74.4507 H         1 UNK         0.0793 
    116 H116      -78.1880   20.5665  -74.1040 H         1 UNK         0.0793 
    117 H117      -79.2714   21.5705  -76.1143 H         1 UNK         0.3047 
    118 H118      -79.7371   24.3338  -78.2597 H         1 UNK         0.0822 
    119 H119      -81.2825   22.8156  -79.4454 H         1 UNK         0.0807 
    120 H120      -80.5028   21.4048  -78.7279 H         1 UNK         0.0807 
    121 H121      -79.6254   22.4194  -79.8644 H         1 UNK         0.0807 
    122 H122      -81.6800   22.8142  -76.9859 H         1 UNK         0.2946 
    123 H123      -82.8043   23.6205  -75.3147 H         1 UNK         0.1144 
    124 H124      -81.6060   21.8835  -74.0808 H         1 UNK         0.0793 
    125 H125      -82.5471   22.8281  -72.9384 H         1 UNK         0.0793 
    126 H126      -80.8034   23.0628  -73.0625 H         1 UNK         0.0793 
    127 H127      -83.1218   25.6726  -74.6267 H         1 UNK         0.2896 
@<TRIPOS>BOND
     1    1    2 1    
     2    1   67 1    
     3    1   68 1    
     4    1   69 1    
     5    2    3 2    
     6    2    4 am   BACKBONE|DICT|INTERRES
     7    4    5 1    
     8    4   70 1    
     9    5    6 1    
    10    5   65 1    
    11    5   71 1    
    12    6    7 1    
    13    6   72 1    
    14    6   73 1    
    15    7    8 1    
    16    8    9 1    
    17    8   74 1    
    18    8   75 1    
    19    9   10 ar   
    20    9   14 ar   
    21   10   11 ar   
    22   10   76 1    
    23   11   12 ar   
    24   11   48 1    
    25   12   13 ar   
    26   12   77 1    
    27   13   14 ar   
    28   13   15 1    
    29   14   78 1    
    30   15   16 1    
    31   15   79 1    
    32   15   80 1    
    33   16   17 1    
    34   17   18 1    
    35   17   81 1    
    36   17   82 1    
    37   18   19 1    
    38   18   22 1    
    39   18   83 1    
    40   19   20 am   BACKBONE|DICT|INTERRES
    41   19   21 2    
    42   20   84 1    
    43   20   85 1    
    44   22   23 am   BACKBONE|DICT|INTERRES
    45   22   86 1    
    46   23   24 2    
    47   23   25 1    
    48   25   26 1    
    49   25   27 1    
    50   25   87 1    
    51   26   88 1    
    52   26   89 1    
    53   26   90 1    
    54   27   28 am   BACKBONE|DICT|INTERRES
    55   27   91 1    
    56   28   29 2    
    57   28   30 1    
    58   30   31 1    
    59   30   32 1    
    60   30   92 1    
    61   31   93 1    
    62   31   94 1    
    63   31   95 1    
    64   32   33 am   BACKBONE|DICT|INTERRES
    65   32   96 1    
    66   33   34 2    
    67   33   35 1    
    68   35   36 1    
    69   35   37 1    
    70   35   97 1    
    71   36   98 1    
    72   36   99 1    
    73   36  100 1    
    74   37   38 am   BACKBONE|DICT|INTERRES
    75   37  101 1    
    76   38   39 2    
    77   38   40 1    
    78   40   41 1    
    79   40   42 1    
    80   40  102 1    
    81   41  103 1    
    82   41  104 1    
    83   41  105 1    
    84   42   43 am   BACKBONE|DICT|INTERRES
    85   42  106 1    
    86   43   44 2    
    87   43   45 1    
    88   45   46 1    
    89   45   49 1    
    90   45  107 1    
    91   46   47 1    
    92   46  108 1    
    93   46  109 1    
    94   47   48 1    
    95   48  110 1    
    96   48  111 1    
    97   49   50 am   BACKBONE|DICT|INTERRES
    98   49  112 1    
    99   50   51 2    
   100   50   52 1    
   101   52   53 1    
   102   52   54 1    
   103   52  113 1    
   104   53  114 1    
   105   53  115 1    
   106   53  116 1    
   107   54   55 am   BACKBONE|DICT|INTERRES
   108   54  117 1    
   109   55   56 2    
   110   55   57 1    
   111   57   58 1    
   112   57   59 1    
   113   57  118 1    
   114   58  119 1    
   115   58  120 1    
   116   58  121 1    
   117   59   60 am   BACKBONE|DICT|INTERRES
   118   59  122 1    
   119   60   61 2    
   120   60   62 1    
   121   62   63 1    
   122   62   64 1    
   123   62  123 1    
   124   63  124 1    
   125   63  125 1    
   126   63  126 1    
   127   64   65 am   BACKBONE|DICT|INTERRES
   128   64  127 1    
   129   65   66 2    
@<TRIPOS>SUBSTRUCTURE
     1 UNK         1 GROUP             0       ****    0 ROOT    
