@<TRIPOS>MOLECULE
3R135
127   129    1
SMALL
USER_CHARGES


@<TRIPOS>ATOM
      1 CA        -82.0160   22.6233  -71.9019 C.3       0 UNK        -0.1998 
      2 C         -81.2358   23.7765  -72.5122 C.2       0 UNK         0.4909 
      3 O         -80.2531   23.5382  -73.2165 O.2       0 UNK        -0.5240 
      4 N         -81.6783   25.0196  -72.2627 N.am      1 UNK        -0.4739 
      5 CA        -81.0595   26.2793  -72.7097 C.3       1 UNK         0.0864 
      6 C6        -79.7594   26.6137  -71.9317 C.3       11 UNK        -0.0881 
      7 S7        -80.0704   27.0703  -70.1945 S.3       11 UNK        -0.2682 
      8 C8        -80.3060   28.8761  -70.3122 C.3       11 UNK         0.0289 
      9 C9        -79.0710   29.6027  -70.8316 C.ar      11 UNK        -0.0687 
     10 C10       -79.0405   30.0913  -72.1419 C.ar      11 UNK        -0.0823 
     11 C11       -77.9107   30.7567  -72.6274 C.ar      11 UNK        -0.0830 
     12 C12       -76.8140   30.9548  -71.7831 C.ar      11 UNK        -0.1021 
     13 C13       -76.8327   30.4724  -70.4707 C.ar      11 UNK        -0.0753 
     14 C14       -77.9633   29.7960  -70.0008 C.ar      11 UNK        -0.0933 
     15 C15       -75.6358   30.6909  -69.5586 C.3       11 UNK         0.0166 
     16 S16       -74.2626   29.5726  -69.9868 S.3       11 UNK        -0.2615 
     17 C17       -72.9168   30.7519  -70.3713 C.3       11 UNK        -0.0865 
     18 CA        -71.9462   30.2643  -71.4790 C.3       10 UNK         0.0862 
     19 C         -71.0543   29.0738  -71.0114 C.2       10 UNK         0.5551 
     20 N         -71.0746   27.9171  -71.6644 N.am      10 UNK        -0.7319 
     21 O         -70.3140   29.2119  -70.0404 O.2       10 UNK        -0.5018 
     22 N         -72.6467   30.0549  -72.7540 N.am      10 UNK        -0.4509 
     23 C         -72.0595   30.0777  -73.9550 C.2       10 UNK         0.4899 
     24 O         -70.8805   30.3817  -74.1482 O.2       10 UNK        -0.4839 
     25 CA        -72.9408   29.6719  -75.1463 C.3       9 UNK         0.0222 
     26 CB        -73.1094   30.8417  -76.1295 C.3       9 UNK        -0.1966 
     27 N         -72.3993   28.5074  -75.8520 N.am      9 UNK        -0.4218 
     28 C         -72.1855   27.3066  -75.2981 C.2       9 UNK         0.5020 
     29 O         -72.4734   27.0284  -74.1316 O.2       9 UNK        -0.5274 
     30 CA        -71.5474   26.2418  -76.1972 C.3       8 UNK         0.0270 
     31 CB        -70.5407   25.3674  -75.4213 C.3       8 UNK        -0.1976 
     32 N         -72.6004   25.4111  -76.7762 N.am      8 UNK        -0.4313 
     33 C         -72.4674   24.6710  -77.8843 C.2       8 UNK         0.5041 
     34 O         -71.4349   24.6238  -78.5555 O.2       8 UNK        -0.5577 
     35 CA        -73.6852   23.8422  -78.3287 C.3       7 UNK         0.0284 
     36 CB        -73.9037   22.6356  -77.4007 C.3       7 UNK        -0.1958 
     37 N         -74.9110   24.6374  -78.4092 N.am      7 UNK        -0.4454 
     38 C         -75.1458   25.5827  -79.3312 C.2       7 UNK         0.5089 
     39 O         -74.3743   25.8516  -80.2526 O.2       7 UNK        -0.5125 
     40 CA        -76.4599   26.3727  -79.1989 C.3       6 UNK         0.0408 
     41 CB        -77.6204   25.6298  -79.8781 C.3       6 UNK        -0.1791 
     42 N         -76.7946   26.6549  -77.8015 N.am      6 UNK        -0.4762 
     43 C         -76.1230   27.5297  -77.0361 C.2       6 UNK         0.5007 
     44 O         -75.2252   28.2524  -77.4677 O.2       6 UNK        -0.5032 
     45 CA        -76.4786   27.5719  -75.5343 C.3       5 UNK         0.0783 
     46 C46       -77.4937   28.6954  -75.2046 C.3       11 UNK        -0.0857 
     47 S47       -76.7109   30.3411  -75.1061 S.3       11 UNK        -0.2512 
     48 C48       -77.8799   31.2692  -74.0610 C.3       11 UNK         0.0225 
     49 N         -76.9221   26.2622  -75.0399 N.am      5 UNK        -0.4615 
     50 C         -76.0998   25.2118  -74.8995 C.2       4 UNK         0.5053 
     51 O         -74.9026   25.2486  -75.1759 O.2       4 UNK        -0.5105 
     52 CA        -76.7003   23.8817  -74.4239 C.3       4 UNK         0.0263 
     53 CB        -76.7581   23.8165  -72.8918 C.3       4 UNK        -0.1981 
     54 N         -78.0147   23.5946  -75.0014 N.am      4 UNK        -0.4224 
     55 C         -78.2002   23.3050  -76.2978 C.2       3 UNK         0.4895 
     56 O         -77.3078   23.3679  -77.1441 O.2       3 UNK        -0.5091 
     57 CA        -79.6093   22.8726  -76.7211 C.3       3 UNK         0.0250 
     58 CB        -79.9742   21.5029  -76.1233 C.3       3 UNK        -0.1996 
     59 N         -80.5992   23.8680  -76.3198 N.am      3 UNK        -0.4254 
     60 C         -80.9577   24.9177  -77.0715 C.2       2 UNK         0.5004 
     61 O         -80.5481   25.1128  -78.2156 O.2       2 UNK        -0.5226 
     62 CA        -81.9371   25.9317  -76.4508 C.3       2 UNK         0.0269 
     63 CB        -83.3708   25.6556  -76.9322 C.3       2 UNK        -0.1926 
     64 N         -81.9223   25.9707  -74.9844 N.am      2 UNK        -0.4687 
     65 C         -80.8615   26.3168  -74.2414 C.2       1 UNK         0.5165 
     66 O         -79.7654   26.6046  -74.7237 O.2       1 UNK        -0.5079 
     67 H67       -82.3894   21.9669  -72.6873 H         1 UNK         0.0900 
     68 H68       -81.3678   22.0393  -71.2492 H         1 UNK         0.0900 
     69 H69       -82.8661   22.9701  -71.3148 H         1 UNK         0.0900 
     70 H70       -82.4975   25.1331  -71.6816 H         1 UNK         0.2959 
     71 H71       -81.7805   27.0718  -72.5033 H         1 UNK         0.1079 
     72 H72       -79.0981   25.7512  -71.9311 H         1 UNK         0.0837 
     73 H73       -79.1918   27.4118  -72.4071 H         1 UNK         0.0837 
     74 H74       -81.1698   29.0835  -70.9455 H         1 UNK         0.0685 
     75 H75       -80.5584   29.2606  -69.3229 H         1 UNK         0.0685 
     76 H76       -79.8938   29.9417  -72.7893 H         1 UNK         0.1434 
     77 H77       -75.9395   31.4736  -72.1520 H         1 UNK         0.1329 
     78 H78       -77.9841   29.4167  -68.9882 H         1 UNK         0.1335 
     79 H79       -75.9121   30.5145  -68.5179 H         1 UNK         0.0680 
     80 H80       -75.3276   31.7355  -69.6104 H         1 UNK         0.0680 
     81 H81       -73.3467   31.7036  -70.6862 H         1 UNK         0.1032 
     82 H82       -72.3716   30.9703  -69.4510 H         1 UNK         0.1032 
     83 H83       -71.2443   31.0845  -71.6430 H         1 UNK         0.0461 
     84 H84       -70.4865   27.1648  -71.3449 H         1 UNK         0.3453 
     85 H85       -71.6730   27.7765  -72.4723 H         1 UNK         0.3453 
     86 H86       -73.6070   29.7522  -72.6774 H         1 UNK         0.2984 
     87 H87       -73.9273   29.3997  -74.7721 H         1 UNK         0.0554 
     88 H88       -73.5285   31.7141  -75.6263 H         1 UNK         0.0847 
     89 H89       -73.7903   30.5827  -76.9406 H         1 UNK         0.0847 
     90 H90       -72.1580   31.1433  -76.5695 H         1 UNK         0.0847 
     91 H91       -72.1478   28.6467  -76.8197 H         1 UNK         0.3141 
     92 H92       -71.0108   26.7512  -77.0006 H         1 UNK         0.0743 
     93 H93       -69.7884   25.9840  -74.9276 H         1 UNK         0.0784 
     94 H94       -71.0342   24.7735  -74.6509 H         1 UNK         0.0784 
     95 H95       -70.0127   24.6819  -76.0842 H         1 UNK         0.0784 
     96 H96       -73.4800   25.3886  -76.2555 H         1 UNK         0.3213 
     97 H97       -73.4744   23.4568  -79.3287 H         1 UNK         0.0855 
     98 H98       -74.1251   22.9416  -76.3784 H         1 UNK         0.0814 
     99 H99       -73.0136   22.0062  -77.3658 H         1 UNK         0.0814 
    100 H100      -74.7285   22.0130  -77.7480 H         1 UNK         0.0814 
    101 H101      -75.6362   24.4340  -77.7294 H         1 UNK         0.3105 
    102 H102      -76.3278   27.3256  -79.7161 H         1 UNK         0.0547 
    103 H103      -78.5367   26.2196  -79.8530 H         1 UNK         0.0837 
    104 H104      -77.3939   25.4294  -80.9260 H         1 UNK         0.0837 
    105 H105      -77.8283   24.6716  -79.4019 H         1 UNK         0.0837 
    106 H106      -77.5057   26.0793  -77.3726 H         1 UNK         0.3020 
    107 H107      -75.5510   27.7933  -75.0026 H         1 UNK         0.1245 
    108 H108      -77.9459   28.4935  -74.2342 H         1 UNK         0.0781 
    109 H109      -78.3174   28.7198  -75.9206 H         1 UNK         0.0781 
    110 H110      -78.8721   31.2307  -74.5134 H         1 UNK         0.0836 
    111 H111      -77.5884   32.3204  -74.0569 H         1 UNK         0.0836 
    112 H112      -77.9139   26.1699  -74.8333 H         1 UNK         0.3022 
    113 H113      -76.0273   23.0871  -74.7534 H         1 UNK         0.0747 
    114 H114      -77.2034   22.8833  -72.5463 H         1 UNK         0.0793 
    115 H115      -75.7558   23.8774  -72.4657 H         1 UNK         0.0793 
    116 H116      -77.3324   24.6393  -72.4750 H         1 UNK         0.0793 
    117 H117      -78.8059   23.5510  -74.3603 H         1 UNK         0.3047 
    118 H118      -79.6134   22.7695  -77.8087 H         1 UNK         0.0822 
    119 H119      -79.2424   20.7464  -76.4100 H         1 UNK         0.0807 
    120 H120      -80.9463   21.1638  -76.4813 H         1 UNK         0.0807 
    121 H121      -80.0102   21.5245  -75.0336 H         1 UNK         0.0807 
    122 H122      -80.9364   23.8169  -75.3674 H         1 UNK         0.2946 
    123 H123      -81.6376   26.9191  -76.8099 H         1 UNK         0.1144 
    124 H124      -84.0621   26.4236  -76.5846 H         1 UNK         0.0793 
    125 H125      -83.7354   24.6893  -76.5813 H         1 UNK         0.0793 
    126 H126      -83.4220   25.6468  -78.0220 H         1 UNK         0.0793 
    127 H127      -82.7780   25.7152  -74.5121 H         1 UNK         0.2896 
@<TRIPOS>BOND
     1    1    2 1    
     2    1   67 1    
     3    1   68 1    
     4    1   69 1    
     5    2    3 2    
     6    2    4 am   BACKBONE|DICT|INTERRES
     7    4    5 1    
     8    4   70 1    
     9    5    6 1    
    10    5   65 1    
    11    5   71 1    
    12    6    7 1    
    13    6   72 1    
    14    6   73 1    
    15    7    8 1    
    16    8    9 1    
    17    8   74 1    
    18    8   75 1    
    19    9   10 ar   
    20    9   14 ar   
    21   10   11 ar   
    22   10   76 1    
    23   11   12 ar   
    24   11   48 1    
    25   12   13 ar   
    26   12   77 1    
    27   13   14 ar   
    28   13   15 1    
    29   14   78 1    
    30   15   16 1    
    31   15   79 1    
    32   15   80 1    
    33   16   17 1    
    34   17   18 1    
    35   17   81 1    
    36   17   82 1    
    37   18   19 1    
    38   18   22 1    
    39   18   83 1    
    40   19   20 am   BACKBONE|DICT|INTERRES
    41   19   21 2    
    42   20   84 1    
    43   20   85 1    
    44   22   23 am   BACKBONE|DICT|INTERRES
    45   22   86 1    
    46   23   24 2    
    47   23   25 1    
    48   25   26 1    
    49   25   27 1    
    50   25   87 1    
    51   26   88 1    
    52   26   89 1    
    53   26   90 1    
    54   27   28 am   BACKBONE|DICT|INTERRES
    55   27   91 1    
    56   28   29 2    
    57   28   30 1    
    58   30   31 1    
    59   30   32 1    
    60   30   92 1    
    61   31   93 1    
    62   31   94 1    
    63   31   95 1    
    64   32   33 am   BACKBONE|DICT|INTERRES
    65   32   96 1    
    66   33   34 2    
    67   33   35 1    
    68   35   36 1    
    69   35   37 1    
    70   35   97 1    
    71   36   98 1    
    72   36   99 1    
    73   36  100 1    
    74   37   38 am   BACKBONE|DICT|INTERRES
    75   37  101 1    
    76   38   39 2    
    77   38   40 1    
    78   40   41 1    
    79   40   42 1    
    80   40  102 1    
    81   41  103 1    
    82   41  104 1    
    83   41  105 1    
    84   42   43 am   BACKBONE|DICT|INTERRES
    85   42  106 1    
    86   43   44 2    
    87   43   45 1    
    88   45   46 1    
    89   45   49 1    
    90   45  107 1    
    91   46   47 1    
    92   46  108 1    
    93   46  109 1    
    94   47   48 1    
    95   48  110 1    
    96   48  111 1    
    97   49   50 am   BACKBONE|DICT|INTERRES
    98   49  112 1    
    99   50   51 2    
   100   50   52 1    
   101   52   53 1    
   102   52   54 1    
   103   52  113 1    
   104   53  114 1    
   105   53  115 1    
   106   53  116 1    
   107   54   55 am   BACKBONE|DICT|INTERRES
   108   54  117 1    
   109   55   56 2    
   110   55   57 1    
   111   57   58 1    
   112   57   59 1    
   113   57  118 1    
   114   58  119 1    
   115   58  120 1    
   116   58  121 1    
   117   59   60 am   BACKBONE|DICT|INTERRES
   118   59  122 1    
   119   60   61 2    
   120   60   62 1    
   121   62   63 1    
   122   62   64 1    
   123   62  123 1    
   124   63  124 1    
   125   63  125 1    
   126   63  126 1    
   127   64   65 am   BACKBONE|DICT|INTERRES
   128   64  127 1    
   129   65   66 2    
@<TRIPOS>SUBSTRUCTURE
     1 UNK         1 GROUP             0       ****    0 ROOT    
