@<TRIPOS>MOLECULE
3R135
127   129    1
SMALL
USER_CHARGES


@<TRIPOS>ATOM
      1 CA        -84.7029   29.6952  -74.5060 C.3       0 UNK        -0.1998 
      2 C         -83.4933   28.7902  -74.3213 C.2       0 UNK         0.4909 
      3 O         -83.6006   27.5862  -74.5559 O.2       0 UNK        -0.5240 
      4 N         -82.3613   29.3726  -73.8972 N.am      1 UNK        -0.4739 
      5 CA        -81.0457   28.7507  -73.6738 C.3       1 UNK         0.0864 
      6 C6        -81.0698   27.5705  -72.6603 C.3       11 UNK        -0.0881 
      7 S7        -81.2595   28.1805  -70.9538 S.3       11 UNK        -0.2682 
      8 C8        -79.9826   27.2181  -70.0673 C.3       11 UNK         0.0289 
      9 C9        -78.5457   27.3874  -70.5696 C.ar      11 UNK        -0.0687 
     10 C10       -77.6378   26.3469  -70.3517 C.ar      11 UNK        -0.0823 
     11 C11       -76.3050   26.4561  -70.7594 C.ar      11 UNK        -0.0830 
     12 C12       -75.8784   27.6211  -71.4022 C.ar      11 UNK        -0.1021 
     13 C13       -76.7693   28.6760  -71.6246 C.ar      11 UNK        -0.0753 
     14 C14       -78.0972   28.5566  -71.1990 C.ar      11 UNK        -0.0933 
     15 C15       -76.2811   29.9718  -72.2582 C.3       11 UNK         0.0166 
     16 S16       -75.5536   29.7196  -73.9099 S.3       11 UNK        -0.2615 
     17 C17       -75.1123   31.4411  -74.3411 C.3       11 UNK        -0.0865 
     18 CA        -73.6050   31.7735  -74.1833 C.3       10 UNK         0.0862 
     19 C         -73.1503   31.7677  -72.6923 C.2       10 UNK         0.5551 
     20 N         -72.2910   30.8515  -72.2591 N.am      10 UNK        -0.7319 
     21 O         -73.5834   32.6188  -71.9194 O.2       10 UNK        -0.5018 
     22 N         -72.7718   30.9628  -75.0827 N.am      10 UNK        -0.4509 
     23 C         -71.5129   31.2667  -75.4254 C.2       10 UNK         0.4899 
     24 O         -70.9789   32.3426  -75.1500 O.2       10 UNK        -0.4839 
     25 CA        -70.7096   30.2029  -76.2045 C.3       9 UNK         0.0222 
     26 CB        -69.2089   30.2398  -75.8464 C.3       9 UNK        -0.1966 
     27 N         -71.2177   28.8279  -76.0899 N.am      9 UNK        -0.4218 
     28 C         -71.4069   28.0974  -74.9820 C.2       9 UNK         0.5020 
     29 O         -71.2533   28.5386  -73.8408 O.2       9 UNK        -0.5274 
     30 CA        -71.8608   26.6358  -75.1956 C.3       8 UNK         0.0270 
     31 CB        -72.0736   25.8883  -73.8660 C.3       8 UNK        -0.1976 
     32 N         -73.0762   26.5077  -76.0103 N.am      8 UNK        -0.4313 
     33 C         -73.1765   26.7357  -77.3271 C.2       8 UNK         0.5041 
     34 O         -72.2294   27.0968  -78.0300 O.2       8 UNK        -0.5577 
     35 CA        -74.5749   26.5494  -77.9395 C.3       7 UNK         0.0284 
     36 CB        -74.6466   26.9364  -79.4318 C.3       7 UNK        -0.1958 
     37 N         -75.1069   25.2013  -77.7163 N.am      7 UNK        -0.4454 
     38 C         -74.6167   24.0343  -78.1599 C.2       7 UNK         0.5089 
     39 O         -73.6111   23.9277  -78.8639 O.2       7 UNK        -0.5125 
     40 CA        -75.4066   22.7731  -77.7453 C.3       6 UNK         0.0408 
     41 CB        -74.6415   21.4634  -78.0304 C.3       6 UNK        -0.1791 
     42 N         -75.8729   22.8078  -76.3521 N.am      6 UNK        -0.4762 
     43 C         -75.1169   22.9305  -75.2478 C.2       6 UNK         0.5007 
     44 O         -73.8881   23.0018  -75.2760 O.2       6 UNK        -0.5032 
     45 CA        -75.8434   22.9785  -73.8867 C.3       5 UNK         0.0783 
     46 C46       -75.1767   23.9745  -72.9021 C.3       11 UNK        -0.0857 
     47 S47       -75.7858   23.7549  -71.2000 S.3       11 UNK        -0.2512 
     48 C48       -75.3164   25.3416  -70.4433 C.3       11 UNK         0.0225 
     49 N         -77.2710   23.2681  -74.0621 N.am      5 UNK        -0.4615 
     50 C         -78.2734   22.5005  -73.6147 C.2       4 UNK         0.5053 
     51 O         -78.1104   21.4285  -73.0313 O.2       4 UNK        -0.5105 
     52 CA        -79.7096   23.0068  -73.8508 C.3       4 UNK         0.0263 
     53 CB        -80.2079   23.7625  -72.6071 C.3       4 UNK        -0.1981 
     54 N         -79.8527   23.8736  -75.0236 N.am      4 UNK        -0.4224 
     55 C         -79.6174   23.5125  -76.2934 C.2       3 UNK         0.4895 
     56 O         -79.2899   22.3767  -76.6364 O.2       3 UNK        -0.5091 
     57 CA        -79.7082   24.6213  -77.3573 C.3       3 UNK         0.0250 
     58 CB        -81.1128   24.6554  -77.9794 C.3       3 UNK        -0.1996 
     59 N         -79.3654   25.9613  -76.8657 N.am      3 UNK        -0.4254 
     60 C         -78.2057   26.3148  -76.2977 C.2       2 UNK         0.5004 
     61 O         -77.2961   25.5232  -76.0506 O.2       2 UNK        -0.5226 
     62 CA        -78.0376   27.7849  -75.8981 C.3       2 UNK         0.0269 
     63 CB        -78.0186   28.7267  -77.1194 C.3       2 UNK        -0.1926 
     64 N         -78.9971   28.2141  -74.8743 N.am      2 UNK        -0.4687 
     65 C         -80.3267   28.3591  -74.9817 C.2       1 UNK         0.5165 
     66 O         -80.9507   28.1867  -76.0316 O.2       1 UNK        -0.5079 
     67 H67       -84.4815   30.7320  -74.2536 H         1 UNK         0.0900 
     68 H68       -85.5223   29.3599  -73.8707 H         1 UNK         0.0900 
     69 H69       -85.0395   29.6632  -75.5419 H         1 UNK         0.0900 
     70 H70       -82.3749   30.3714  -73.7447 H         1 UNK         0.2959 
     71 H71       -80.4338   29.5479  -73.2477 H         1 UNK         0.1079 
     72 H72       -81.8676   26.8596  -72.8740 H         1 UNK         0.0837 
     73 H73       -80.1507   26.9865  -72.7158 H         1 UNK         0.0837 
     74 H74       -80.0124   27.4981  -69.0137 H         1 UNK         0.0685 
     75 H75       -80.2677   26.1657  -70.1139 H         1 UNK         0.0685 
     76 H76       -77.9633   25.4479  -69.8455 H         1 UNK         0.1434 
     77 H77       -74.8459   27.7234  -71.7085 H         1 UNK         0.1329 
     78 H78       -78.7752   29.3862  -71.3389 H         1 UNK         0.1335 
     79 H79       -77.0985   30.6899  -72.3400 H         1 UNK         0.0680 
     80 H80       -75.5382   30.4212  -71.5985 H         1 UNK         0.0680 
     81 H81       -75.7165   32.1375  -73.7568 H         1 UNK         0.1032 
     82 H82       -75.4107   31.6088  -75.3770 H         1 UNK         0.1032 
     83 H83       -73.4903   32.8091  -74.5099 H         1 UNK         0.0461 
     84 H84       -72.0019   30.8631  -71.2946 H         1 UNK         0.3453 
     85 H85       -71.9442   30.1277  -72.8813 H         1 UNK         0.3453 
     86 H86       -73.1331   30.0509  -75.3182 H         1 UNK         0.2984 
     87 H87       -70.8051   30.4694  -77.2579 H         1 UNK         0.0554 
     88 H88       -68.6445   29.5068  -76.4228 H         1 UNK         0.0847 
     89 H89       -69.0432   30.0339  -74.7882 H         1 UNK         0.0847 
     90 H90       -68.7745   31.2173  -76.0597 H         1 UNK         0.0847 
     91 H91       -71.4297   28.3567  -76.9699 H         1 UNK         0.3141 
     92 H92       -71.0486   26.1341  -75.7259 H         1 UNK         0.0743 
     93 H93       -72.9052   26.3041  -73.2956 H         1 UNK         0.0784 
     94 H94       -72.2721   24.8311  -74.0387 H         1 UNK         0.0784 
     95 H95       -71.1848   25.9443  -73.2360 H         1 UNK         0.0784 
     96 H96       -73.9075   26.2131  -75.5195 H         1 UNK         0.3213 
     97 H97       -75.2306   27.2309  -77.3973 H         1 UNK         0.0855 
     98 H98       -74.3447   27.9741  -79.5789 H         1 UNK         0.0814 
     99 H99       -75.6604   26.8359  -79.8191 H         1 UNK         0.0814 
    100 H100      -73.9896   26.3193  -80.0454 H         1 UNK         0.0814 
    101 H101      -75.9276   25.1593  -77.1117 H         1 UNK         0.3105 
    102 H102      -76.3063   22.7669  -78.3625 H         1 UNK         0.0547 
    103 H103      -74.4060   21.3710  -79.0913 H         1 UNK         0.0837 
    104 H104      -73.6988   21.4177  -77.4842 H         1 UNK         0.0837 
    105 H105      -75.2323   20.5901  -77.7545 H         1 UNK         0.0837 
    106 H106      -76.8754   22.7526  -76.2261 H         1 UNK         0.3020 
    107 H107      -75.7168   21.9737  -73.4773 H         1 UNK         0.1245 
    108 H108      -75.3453   25.0039  -73.2242 H         1 UNK         0.0781 
    109 H109      -74.0962   23.8301  -72.8635 H         1 UNK         0.0781 
    110 H110      -74.3053   25.6076  -70.7559 H         1 UNK         0.0836 
    111 H111      -75.2752   25.2115  -69.3610 H         1 UNK         0.0836 
    112 H112      -77.4839   24.1236  -74.5642 H         1 UNK         0.3022 
    113 H113      -80.3466   22.1335  -74.0052 H         1 UNK         0.0747 
    114 H114      -81.2370   24.1016  -72.7279 H         1 UNK         0.0793 
    115 H115      -80.1817   23.1196  -71.7260 H         1 UNK         0.0793 
    116 H116      -79.5866   24.6320  -72.3888 H         1 UNK         0.0793 
    117 H117      -80.1180   24.8314  -74.8509 H         1 UNK         0.3047 
    118 H118      -78.9912   24.3721  -78.1423 H         1 UNK         0.0822 
    119 H119      -81.1614   25.3595  -78.8104 H         1 UNK         0.0807 
    120 H120      -81.8701   24.9457  -77.2497 H         1 UNK         0.0807 
    121 H121      -81.3927   23.6759  -78.3701 H         1 UNK         0.0807 
    122 H122      -80.0767   26.6828  -76.9472 H         1 UNK         0.2946 
    123 H123      -77.0551   27.8493  -75.4308 H         1 UNK         0.1144 
    124 H124      -77.2648   28.4166  -77.8433 H         1 UNK         0.0793 
    125 H125      -77.7781   29.7473  -76.8214 H         1 UNK         0.0793 
    126 H126      -78.9730   28.7496  -77.6452 H         1 UNK         0.0793 
    127 H127      -78.5820   28.3677  -73.9649 H         1 UNK         0.2896 
@<TRIPOS>BOND
     1    1    2 1    
     2    1   67 1    
     3    1   68 1    
     4    1   69 1    
     5    2    3 2    
     6    2    4 am   BACKBONE|DICT|INTERRES
     7    4    5 1    
     8    4   70 1    
     9    5    6 1    
    10    5   65 1    
    11    5   71 1    
    12    6    7 1    
    13    6   72 1    
    14    6   73 1    
    15    7    8 1    
    16    8    9 1    
    17    8   74 1    
    18    8   75 1    
    19    9   10 ar   
    20    9   14 ar   
    21   10   11 ar   
    22   10   76 1    
    23   11   12 ar   
    24   11   48 1    
    25   12   13 ar   
    26   12   77 1    
    27   13   14 ar   
    28   13   15 1    
    29   14   78 1    
    30   15   16 1    
    31   15   79 1    
    32   15   80 1    
    33   16   17 1    
    34   17   18 1    
    35   17   81 1    
    36   17   82 1    
    37   18   19 1    
    38   18   22 1    
    39   18   83 1    
    40   19   20 am   BACKBONE|DICT|INTERRES
    41   19   21 2    
    42   20   84 1    
    43   20   85 1    
    44   22   23 am   BACKBONE|DICT|INTERRES
    45   22   86 1    
    46   23   24 2    
    47   23   25 1    
    48   25   26 1    
    49   25   27 1    
    50   25   87 1    
    51   26   88 1    
    52   26   89 1    
    53   26   90 1    
    54   27   28 am   BACKBONE|DICT|INTERRES
    55   27   91 1    
    56   28   29 2    
    57   28   30 1    
    58   30   31 1    
    59   30   32 1    
    60   30   92 1    
    61   31   93 1    
    62   31   94 1    
    63   31   95 1    
    64   32   33 am   BACKBONE|DICT|INTERRES
    65   32   96 1    
    66   33   34 2    
    67   33   35 1    
    68   35   36 1    
    69   35   37 1    
    70   35   97 1    
    71   36   98 1    
    72   36   99 1    
    73   36  100 1    
    74   37   38 am   BACKBONE|DICT|INTERRES
    75   37  101 1    
    76   38   39 2    
    77   38   40 1    
    78   40   41 1    
    79   40   42 1    
    80   40  102 1    
    81   41  103 1    
    82   41  104 1    
    83   41  105 1    
    84   42   43 am   BACKBONE|DICT|INTERRES
    85   42  106 1    
    86   43   44 2    
    87   43   45 1    
    88   45   46 1    
    89   45   49 1    
    90   45  107 1    
    91   46   47 1    
    92   46  108 1    
    93   46  109 1    
    94   47   48 1    
    95   48  110 1    
    96   48  111 1    
    97   49   50 am   BACKBONE|DICT|INTERRES
    98   49  112 1    
    99   50   51 2    
   100   50   52 1    
   101   52   53 1    
   102   52   54 1    
   103   52  113 1    
   104   53  114 1    
   105   53  115 1    
   106   53  116 1    
   107   54   55 am   BACKBONE|DICT|INTERRES
   108   54  117 1    
   109   55   56 2    
   110   55   57 1    
   111   57   58 1    
   112   57   59 1    
   113   57  118 1    
   114   58  119 1    
   115   58  120 1    
   116   58  121 1    
   117   59   60 am   BACKBONE|DICT|INTERRES
   118   59  122 1    
   119   60   61 2    
   120   60   62 1    
   121   62   63 1    
   122   62   64 1    
   123   62  123 1    
   124   63  124 1    
   125   63  125 1    
   126   63  126 1    
   127   64   65 am   BACKBONE|DICT|INTERRES
   128   64  127 1    
   129   65   66 2    
@<TRIPOS>SUBSTRUCTURE
     1 UNK         1 GROUP             0       ****    0 ROOT    
