@<TRIPOS>MOLECULE
3R135
127   129    1
SMALL
USER_CHARGES


@<TRIPOS>ATOM
      1 CA        -84.7454   26.5507  -70.3512 C.3       0 UNK        -0.1998 
      2 C         -84.6187   26.5700  -71.8669 C.2       0 UNK         0.4909 
      3 O         -85.2691   25.7755  -72.5465 O.2       0 UNK        -0.5240 
      4 N         -83.7877   27.4741  -72.4015 N.am      1 UNK        -0.4739 
      5 CA        -83.5067   27.6219  -73.8360 C.3       1 UNK         0.0864 
      6 C6        -82.8507   28.9897  -74.1665 C.3       11 UNK        -0.0881 
      7 S7        -81.4625   29.4476  -73.0685 S.3       11 UNK        -0.2682 
      8 C8        -80.0322   29.0207  -74.1046 C.3       11 UNK         0.0289 
      9 C9        -78.7343   29.1341  -73.3207 C.ar      11 UNK        -0.0687 
     10 C10       -78.4386   28.1974  -72.3281 C.ar      11 UNK        -0.0823 
     11 C11       -77.2551   28.2924  -71.5920 C.ar      11 UNK        -0.0830 
     12 C12       -76.3584   29.3285  -71.8647 C.ar      11 UNK        -0.1021 
     13 C13       -76.6308   30.2702  -72.8683 C.ar      11 UNK        -0.0753 
     14 C14       -77.8286   30.1656  -73.5846 C.ar      11 UNK        -0.0933 
     15 C15       -75.6849   31.4269  -73.2019 C.3       11 UNK         0.0166 
     16 S16       -73.9905   31.2628  -72.5376 S.3       11 UNK        -0.2615 
     17 C17       -72.9708   31.6194  -74.0094 C.3       11 UNK        -0.0865 
     18 CA        -72.8113   30.4062  -74.9760 C.3       10 UNK         0.0862 
     19 C         -71.9463   30.7573  -76.2261 C.2       10 UNK         0.5551 
     20 N         -71.2112   29.8205  -76.8128 N.am      10 UNK        -0.7319 
     21 O         -71.9497   31.8974  -76.6854 O.2       10 UNK        -0.5018 
     22 N         -72.4307   29.1558  -74.2945 N.am      10 UNK        -0.4509 
     23 C         -71.3085   28.9581  -73.5900 C.2       10 UNK         0.4899 
     24 O         -70.4084   29.7888  -73.4634 O.2       10 UNK        -0.4839 
     25 CA        -71.1690   27.5941  -72.9072 C.3       9 UNK         0.0222 
     26 CB        -72.0765   27.5131  -71.6668 C.3       9 UNK        -0.1966 
     27 N         -71.5031   26.5172  -73.8395 N.am      9 UNK        -0.4218 
     28 C         -70.5987   25.8112  -74.5287 C.2       9 UNK         0.5020 
     29 O         -69.3810   25.9776  -74.4385 O.2       9 UNK        -0.5274 
     30 CA        -71.1303   24.7120  -75.4608 C.3       8 UNK         0.0270 
     31 CB        -71.4813   23.4507  -74.6543 C.3       8 UNK        -0.1976 
     32 N         -72.2783   25.1099  -76.2809 N.am      8 UNK        -0.4313 
     33 C         -72.2250   26.0017  -77.2811 C.2       8 UNK         0.5041 
     34 O         -71.2370   26.6936  -77.5283 O.2       8 UNK        -0.5577 
     35 CA        -73.4691   26.1214  -78.1770 C.3       7 UNK         0.0284 
     36 CB        -73.7219   24.8238  -78.9640 C.3       7 UNK        -0.1958 
     37 N         -74.6556   26.4645  -77.3997 N.am      7 UNK        -0.4454 
     38 C         -74.9779   27.7074  -77.0205 C.2       7 UNK         0.5089 
     39 O         -74.3873   28.7145  -77.4063 O.2       7 UNK        -0.5125 
     40 CA        -76.1501   27.8596  -76.0325 C.3       6 UNK         0.0408 
     41 CB        -77.4534   28.1259  -76.7994 C.3       6 UNK        -0.1791 
     42 N         -76.3245   26.7057  -75.1427 N.am      6 UNK        -0.4762 
     43 C         -75.3936   26.2575  -74.2860 C.2       6 UNK         0.5007 
     44 O         -74.2906   26.7878  -74.1406 O.2       6 UNK        -0.5032 
     45 CA        -75.7031   24.9416  -73.5425 C.3       5 UNK         0.0783 
     46 C46       -76.5574   25.1448  -72.2710 C.3       11 UNK        -0.0857 
     47 S47       -75.6937   26.0719  -70.9595 S.3       11 UNK        -0.2512 
     48 C48       -76.9565   27.2944  -70.4811 C.3       11 UNK         0.0225 
     49 N         -76.3290   23.9690  -74.4403 N.am      5 UNK        -0.4615 
     50 C         -75.7019   23.3445  -75.4449 C.2       4 UNK         0.5053 
     51 O         -74.5105   23.4970  -75.7063 O.2       4 UNK        -0.5105 
     52 CA        -76.5615   22.4358  -76.3378 C.3       4 UNK         0.0263 
     53 CB        -76.7533   21.0575  -75.6859 C.3       4 UNK        -0.1981 
     54 N         -77.8668   23.0280  -76.6392 N.am      4 UNK        -0.4224 
     55 C         -78.0373   24.1427  -77.3649 C.2       3 UNK         0.4895 
     56 O         -77.1170   24.7445  -77.9171 O.2       3 UNK        -0.5091 
     57 CA        -79.4676   24.6999  -77.4661 C.3       3 UNK         0.0250 
     58 CB        -80.1823   24.1226  -78.6979 C.3       3 UNK        -0.1996 
     59 N         -80.2897   24.4716  -76.2722 N.am      3 UNK        -0.4254 
     60 C         -80.0177   24.9400  -75.0461 C.2       2 UNK         0.5004 
     61 O         -79.0014   25.5784  -74.7651 O.2       2 UNK        -0.5226 
     62 CA        -81.0485   24.6310  -73.9457 C.3       2 UNK         0.0269 
     63 CB        -80.3614   24.1049  -72.6735 C.3       2 UNK        -0.1926 
     64 N         -81.8620   25.7989  -73.5991 N.am      2 UNK        -0.4687 
     65 C         -82.7076   26.4372  -74.4229 C.2       1 UNK         0.5165 
     66 O         -82.8962   26.1098  -75.5954 O.2       1 UNK        -0.5079 
     67 H67       -84.1202   27.3090  -69.8800 H         1 UNK         0.0900 
     68 H68       -84.4484   25.5770  -69.9625 H         1 UNK         0.0900 
     69 H69       -85.7789   26.7340  -70.0587 H         1 UNK         0.0900 
     70 H70       -83.2798   28.1090  -71.8003 H         1 UNK         0.2959 
     71 H71       -84.4710   27.6020  -74.3495 H         1 UNK         0.1079 
     72 H72       -82.5354   29.0363  -75.2111 H         1 UNK         0.0837 
     73 H73       -83.6042   29.7721  -74.0631 H         1 UNK         0.0837 
     74 H74       -80.1384   28.0017  -74.4751 H         1 UNK         0.0685 
     75 H75       -80.0162   29.6710  -74.9805 H         1 UNK         0.0685 
     76 H76       -79.1414   27.4011  -72.1259 H         1 UNK         0.1434 
     77 H77       -75.4504   29.3882  -71.2827 H         1 UNK         0.1329 
     78 H78       -78.0565   30.8914  -74.3532 H         1 UNK         0.1335 
     79 H79       -75.6373   31.5356  -74.2863 H         1 UNK         0.0680 
     80 H80       -76.1156   32.3528  -72.8189 H         1 UNK         0.0680 
     81 H81       -71.9917   31.9545  -73.6634 H         1 UNK         0.1032 
     82 H82       -73.4042   32.4738  -74.5325 H         1 UNK         0.1032 
     83 H83       -73.8042   30.2086  -75.3762 H         1 UNK         0.0461 
     84 H84       -71.2434   28.8625  -76.4968 H         1 UNK         0.3453 
     85 H85       -70.6666   30.0601  -77.6252 H         1 UNK         0.3453 
     86 H86       -73.1179   28.4101  -74.3265 H         1 UNK         0.2984 
     87 H87       -70.1369   27.4893  -72.5659 H         1 UNK         0.0554 
     88 H88       -71.9846   26.5478  -71.1690 H         1 UNK         0.0847 
     89 H89       -73.1281   27.6609  -71.9152 H         1 UNK         0.0847 
     90 H90       -71.8082   28.2808  -70.9401 H         1 UNK         0.0847 
     91 H91       -72.4941   26.3635  -74.0125 H         1 UNK         0.3141 
     92 H92       -70.3208   24.4508  -76.1459 H         1 UNK         0.0743 
     93 H93       -72.3070   23.6289  -73.9644 H         1 UNK         0.0784 
     94 H94       -71.7661   22.6275  -75.3099 H         1 UNK         0.0784 
     95 H95       -70.6285   23.1138  -74.0633 H         1 UNK         0.0784 
     96 H96       -73.1368   24.5788  -76.1366 H         1 UNK         0.3213 
     97 H97       -73.2802   26.9151  -78.9036 H         1 UNK         0.0855 
     98 H98       -73.9533   23.9827  -78.3103 H         1 UNK         0.0814 
     99 H99       -72.8464   24.5488  -79.5535 H         1 UNK         0.0814 
    100 H100      -74.5558   24.9412  -79.6565 H         1 UNK         0.0814 
    101 H101      -75.2502   25.7030  -77.0969 H         1 UNK         0.3105 
    102 H102      -75.9416   28.7231  -75.3982 H         1 UNK         0.0547 
    103 H103      -77.4112   29.0896  -77.3081 H         1 UNK         0.0837 
    104 H104      -77.6338   27.3677  -77.5606 H         1 UNK         0.0837 
    105 H105      -78.3149   28.1437  -76.1356 H         1 UNK         0.0837 
    106 H106      -77.2271   26.2373  -75.1634 H         1 UNK         0.3020 
    107 H107      -74.7430   24.5222  -73.2320 H         1 UNK         0.1245 
    108 H108      -76.8268   24.1753  -71.8490 H         1 UNK         0.0781 
    109 H109      -77.5000   25.6276  -72.5235 H         1 UNK         0.0781 
    110 H110      -76.6060   27.8331  -69.5995 H         1 UNK         0.0836 
    111 H111      -77.8642   26.7723  -70.1742 H         1 UNK         0.0836 
    112 H112      -77.3264   23.8491  -74.3423 H         1 UNK         0.3022 
    113 H113      -76.0277   22.2971  -77.2806 H         1 UNK         0.0747 
    114 H114      -77.2943   20.3789  -76.3457 H         1 UNK         0.0793 
    115 H115      -75.7903   20.5938  -75.4668 H         1 UNK         0.0793 
    116 H116      -77.3042   21.1237  -74.7468 H         1 UNK         0.0793 
    117 H117      -78.6804   22.5874  -76.2356 H         1 UNK         0.3047 
    118 H118      -79.3871   25.7802  -77.5982 H         1 UNK         0.0822 
    119 H119      -81.1588   24.5855  -78.8433 H         1 UNK         0.0807 
    120 H120      -80.3294   23.0452  -78.6134 H         1 UNK         0.0807 
    121 H121      -79.6031   24.3026  -79.6049 H         1 UNK         0.0807 
    122 H122      -81.1655   23.9900  -76.4191 H         1 UNK         0.2946 
    123 H123      -81.7209   23.8507  -74.3090 H         1 UNK         0.1144 
    124 H124      -81.0939   23.7661  -71.9407 H         1 UNK         0.0793 
    125 H125      -79.7463   24.8695  -72.1990 H         1 UNK         0.0793 
    126 H126      -79.7140   23.2560  -72.8977 H         1 UNK         0.0793 
    127 H127      -81.7737   26.1502  -72.6572 H         1 UNK         0.2896 
@<TRIPOS>BOND
     1    1    2 1    
     2    1   67 1    
     3    1   68 1    
     4    1   69 1    
     5    2    3 2    
     6    2    4 am   BACKBONE|DICT|INTERRES
     7    4    5 1    
     8    4   70 1    
     9    5    6 1    
    10    5   65 1    
    11    5   71 1    
    12    6    7 1    
    13    6   72 1    
    14    6   73 1    
    15    7    8 1    
    16    8    9 1    
    17    8   74 1    
    18    8   75 1    
    19    9   10 ar   
    20    9   14 ar   
    21   10   11 ar   
    22   10   76 1    
    23   11   12 ar   
    24   11   48 1    
    25   12   13 ar   
    26   12   77 1    
    27   13   14 ar   
    28   13   15 1    
    29   14   78 1    
    30   15   16 1    
    31   15   79 1    
    32   15   80 1    
    33   16   17 1    
    34   17   18 1    
    35   17   81 1    
    36   17   82 1    
    37   18   19 1    
    38   18   22 1    
    39   18   83 1    
    40   19   20 am   BACKBONE|DICT|INTERRES
    41   19   21 2    
    42   20   84 1    
    43   20   85 1    
    44   22   23 am   BACKBONE|DICT|INTERRES
    45   22   86 1    
    46   23   24 2    
    47   23   25 1    
    48   25   26 1    
    49   25   27 1    
    50   25   87 1    
    51   26   88 1    
    52   26   89 1    
    53   26   90 1    
    54   27   28 am   BACKBONE|DICT|INTERRES
    55   27   91 1    
    56   28   29 2    
    57   28   30 1    
    58   30   31 1    
    59   30   32 1    
    60   30   92 1    
    61   31   93 1    
    62   31   94 1    
    63   31   95 1    
    64   32   33 am   BACKBONE|DICT|INTERRES
    65   32   96 1    
    66   33   34 2    
    67   33   35 1    
    68   35   36 1    
    69   35   37 1    
    70   35   97 1    
    71   36   98 1    
    72   36   99 1    
    73   36  100 1    
    74   37   38 am   BACKBONE|DICT|INTERRES
    75   37  101 1    
    76   38   39 2    
    77   38   40 1    
    78   40   41 1    
    79   40   42 1    
    80   40  102 1    
    81   41  103 1    
    82   41  104 1    
    83   41  105 1    
    84   42   43 am   BACKBONE|DICT|INTERRES
    85   42  106 1    
    86   43   44 2    
    87   43   45 1    
    88   45   46 1    
    89   45   49 1    
    90   45  107 1    
    91   46   47 1    
    92   46  108 1    
    93   46  109 1    
    94   47   48 1    
    95   48  110 1    
    96   48  111 1    
    97   49   50 am   BACKBONE|DICT|INTERRES
    98   49  112 1    
    99   50   51 2    
   100   50   52 1    
   101   52   53 1    
   102   52   54 1    
   103   52  113 1    
   104   53  114 1    
   105   53  115 1    
   106   53  116 1    
   107   54   55 am   BACKBONE|DICT|INTERRES
   108   54  117 1    
   109   55   56 2    
   110   55   57 1    
   111   57   58 1    
   112   57   59 1    
   113   57  118 1    
   114   58  119 1    
   115   58  120 1    
   116   58  121 1    
   117   59   60 am   BACKBONE|DICT|INTERRES
   118   59  122 1    
   119   60   61 2    
   120   60   62 1    
   121   62   63 1    
   122   62   64 1    
   123   62  123 1    
   124   63  124 1    
   125   63  125 1    
   126   63  126 1    
   127   64   65 am   BACKBONE|DICT|INTERRES
   128   64  127 1    
   129   65   66 2    
@<TRIPOS>SUBSTRUCTURE
     1 UNK         1 GROUP             0       ****    0 ROOT    
