@<TRIPOS>MOLECULE
3R135
127   129    1
SMALL
USER_CHARGES


@<TRIPOS>ATOM
      1 CA        -82.3549   24.8323  -71.8373 C.3       0 UNK        -0.1998 
      2 C         -82.5006   25.9622  -72.8441 C.2       0 UNK         0.4909 
      3 O         -83.4737   25.9927  -73.5989 O.2       0 UNK        -0.5240 
      4 N         -81.5371   26.8911  -72.8702 N.am      1 UNK        -0.4739 
      5 CA        -81.4958   28.0616  -73.7590 C.3       1 UNK         0.0864 
      6 C6        -80.6946   29.2369  -73.1355 C.3       11 UNK        -0.0881 
      7 S7        -81.3439   29.7173  -71.4946 S.3       11 UNK        -0.2682 
      8 C8        -79.8894   30.4805  -70.6904 C.3       11 UNK         0.0289 
      9 C9        -78.6613   29.5771  -70.5707 C.ar      11 UNK        -0.0687 
     10 C10       -78.7749   28.1936  -70.3857 C.ar      11 UNK        -0.0823 
     11 C11       -77.6347   27.3848  -70.3533 C.ar      11 UNK        -0.0830 
     12 C12       -76.3706   27.9748  -70.4224 C.ar      11 UNK        -0.1021 
     13 C13       -76.2367   29.3581  -70.5732 C.ar      11 UNK        -0.0753 
     14 C14       -77.3871   30.1495  -70.6527 C.ar      11 UNK        -0.0933 
     15 C15       -74.8574   30.0060  -70.6384 C.3       11 UNK         0.0166 
     16 S16       -73.7389   29.1738  -71.8127 S.3       11 UNK        -0.2615 
     17 C17       -72.3262   30.3299  -71.8289 C.3       11 UNK        -0.0865 
     18 CA        -72.2356   31.1073  -73.1660 C.3       10 UNK         0.0862 
     19 C         -71.1394   32.2043  -73.0964 C.2       10 UNK         0.5551 
     20 N         -71.4999   33.4138  -72.6898 N.am      10 UNK        -0.7319 
     21 O         -69.9641   31.9593  -73.3630 O.2       10 UNK        -0.5018 
     22 N         -72.0312   30.1878  -74.2912 N.am      10 UNK        -0.4509 
     23 C         -72.1814   30.4838  -75.5841 C.2       10 UNK         0.4899 
     24 O         -72.5635   31.5819  -75.9904 O.2       10 UNK        -0.4839 
     25 CA        -71.8817   29.3753  -76.6127 C.3       9 UNK         0.0222 
     26 CB        -70.4701   29.5450  -77.2076 C.3       9 UNK        -0.1966 
     27 N         -72.1052   27.9941  -76.1513 N.am      9 UNK        -0.4218 
     28 C         -71.4366   27.2890  -75.2231 C.2       9 UNK         0.5020 
     29 O         -70.5176   27.7562  -74.5492 O.2       9 UNK        -0.5274 
     30 CA        -71.8630   25.8288  -74.9648 C.3       8 UNK         0.0270 
     31 CB        -72.5073   25.6977  -73.5738 C.3       8 UNK        -0.1976 
     32 N         -72.7762   25.2783  -75.9699 N.am      8 UNK        -0.4313 
     33 C         -72.4507   24.9932  -77.2387 C.2       8 UNK         0.5041 
     34 O         -71.3073   25.0790  -77.6877 O.2       8 UNK        -0.5577 
     35 CA        -73.6011   24.5874  -78.1790 C.3       7 UNK         0.0284 
     36 CB        -73.7821   23.0618  -78.1842 C.3       7 UNK        -0.1958 
     37 N         -74.8779   25.2334  -77.8525 N.am      7 UNK        -0.4454 
     38 C         -75.0973   26.5569  -77.8669 C.2       7 UNK         0.5089 
     39 O         -74.2480   27.3885  -78.1855 O.2       7 UNK        -0.5125 
     40 CA        -76.4751   27.0367  -77.3869 C.3       6 UNK         0.0408 
     41 CB        -77.5264   26.9238  -78.5012 C.3       6 UNK        -0.1791 
     42 N         -76.9122   26.3034  -76.1978 N.am      6 UNK        -0.4762 
     43 C         -76.4023   26.4967  -74.9718 C.2       6 UNK         0.5007 
     44 O         -75.5627   27.3582  -74.7149 O.2       6 UNK        -0.5032 
     45 CA        -76.8829   25.5516  -73.8516 C.3       5 UNK         0.0783 
     46 C46       -78.1324   26.1361  -73.1641 C.3       11 UNK        -0.0857 
     47 S47       -78.6980   25.1741  -71.7146 S.3       11 UNK        -0.2512 
     48 C48       -77.7589   25.8680  -70.3065 C.3       11 UNK         0.0225 
     49 N         -77.1171   24.1946  -74.3502 N.am      5 UNK        -0.4615 
     50 C         -76.1473   23.3660  -74.7561 C.2       4 UNK         0.5053 
     51 O         -74.9512   23.6531  -74.7314 O.2       4 UNK        -0.5105 
     52 CA        -76.5856   22.0067  -75.3272 C.3       4 UNK         0.0263 
     53 CB        -76.7220   20.9717  -74.1997 C.3       4 UNK        -0.1981 
     54 N         -77.8346   22.0622  -76.0938 N.am      4 UNK        -0.4224 
     55 C         -78.0450   22.8252  -77.1761 C.2       3 UNK         0.4895 
     56 O         -77.1970   23.5820  -77.6499 O.2       3 UNK        -0.5091 
     57 CA        -79.4298   22.7550  -77.8453 C.3       3 UNK         0.0250 
     58 CB        -80.3560   21.6536  -77.2779 C.3       3 UNK        -0.1996 
     59 N         -80.1147   24.0542  -77.8360 N.am      3 UNK        -0.4254 
     60 C         -80.4516   24.7822  -76.7601 C.2       2 UNK         0.5004 
     61 O         -80.1451   24.4771  -75.6040 O.2       2 UNK        -0.5226 
     62 CA        -81.2936   26.0446  -77.0365 C.3       2 UNK         0.0269 
     63 CB        -82.5862   25.6991  -77.8003 C.3       2 UNK        -0.1926 
     64 N         -81.6732   26.7057  -75.7888 N.am      2 UNK        -0.4687 
     65 C         -80.9784   27.6599  -75.1605 C.2       1 UNK         0.5165 
     66 O         -79.9639   28.1807  -75.6272 O.2       1 UNK        -0.5079 
     67 H67       -81.6923   25.1075  -71.0172 H         1 UNK         0.0900 
     68 H68       -81.9484   23.9470  -72.3258 H         1 UNK         0.0900 
     69 H69       -83.3248   24.5754  -71.4123 H         1 UNK         0.0900 
     70 H70       -80.7406   26.7855  -72.2582 H         1 UNK         0.2959 
     71 H71       -82.5191   28.4165  -73.9031 H         1 UNK         0.1079 
     72 H72       -80.7363   30.1135  -73.7846 H         1 UNK         0.0837 
     73 H73       -79.6397   28.9734  -73.0505 H         1 UNK         0.0837 
     74 H74       -79.6363   31.3845  -71.2468 H         1 UNK         0.0685 
     75 H75       -80.1776   30.8048  -69.6899 H         1 UNK         0.0685 
     76 H76       -79.7507   27.7341  -70.3172 H         1 UNK         0.1434 
     77 H77       -75.4848   27.3556  -70.3832 H         1 UNK         0.1329 
     78 H78       -77.2907   31.2193  -70.7798 H         1 UNK         0.1335 
     79 H79       -74.4108   29.9887  -69.6434 H         1 UNK         0.0680 
     80 H80       -74.9450   31.0551  -70.9260 H         1 UNK         0.0680 
     81 H81       -72.4130   31.0186  -70.9861 H         1 UNK         0.1032 
     82 H82       -71.4111   29.7600  -71.6558 H         1 UNK         0.1032 
     83 H83       -73.1935   31.6062  -73.3292 H         1 UNK         0.0461 
     84 H84       -70.8004   34.1366  -72.6220 H         1 UNK         0.3453 
     85 H85       -72.4594   33.6236  -72.4617 H         1 UNK         0.3453 
     86 H86       -71.6320   29.2832  -74.0667 H         1 UNK         0.2984 
     87 H87       -72.5939   29.5193  -77.4264 H         1 UNK         0.0554 
     88 H88       -70.2768   28.8079  -77.9870 H         1 UNK         0.0847 
     89 H89       -69.6929   29.4450  -76.4493 H         1 UNK         0.0847 
     90 H90       -70.3547   30.5316  -77.6582 H         1 UNK         0.0847 
     91 H91       -72.8675   27.5249  -76.6290 H         1 UNK         0.3141 
     92 H92       -70.9536   25.2246  -74.9753 H         1 UNK         0.0743 
     93 H93       -72.7496   24.6602  -73.3431 H         1 UNK         0.0784 
     94 H94       -71.8324   26.0522  -72.7934 H         1 UNK         0.0784 
     95 H95       -73.4242   26.2824  -73.4969 H         1 UNK         0.0784 
     96 H96       -73.7230   25.0808  -75.6633 H         1 UNK         0.3213 
     97 H97       -73.3266   24.9026  -79.1879 H         1 UNK         0.0855 
     98 H98       -72.8691   22.5636  -78.5128 H         1 UNK         0.0814 
     99 H99       -74.5810   22.7562  -78.8602 H         1 UNK         0.0814 
    100 H100      -74.0183   22.6827  -77.1904 H         1 UNK         0.0814 
    101 H101      -75.6603   24.6207  -77.6294 H         1 UNK         0.3105 
    102 H102      -76.3859   28.0934  -77.1249 H         1 UNK         0.0547 
    103 H103      -77.2030   27.4597  -79.3945 H         1 UNK         0.0837 
    104 H104      -77.7108   25.8901  -78.7927 H         1 UNK         0.0837 
    105 H105      -78.4729   27.3635  -78.1894 H         1 UNK         0.0837 
    106 H106      -77.5561   25.5370  -76.3396 H         1 UNK         0.3020 
    107 H107      -76.0801   25.5049  -73.1118 H         1 UNK         0.1245 
    108 H108      -78.9568   26.1495  -73.8753 H         1 UNK         0.0781 
    109 H109      -77.9708   27.1790  -72.8930 H         1 UNK         0.0781 
    110 H110      -76.7727   25.4014  -70.2917 H         1 UNK         0.0836 
    111 H111      -78.2476   25.5763  -69.3760 H         1 UNK         0.0836 
    112 H112      -78.0833   23.9039  -74.4271 H         1 UNK         0.3022 
    113 H113      -75.8021   21.6671  -76.0065 H         1 UNK         0.0747 
    114 H114      -76.9392   19.9791  -74.5948 H         1 UNK         0.0793 
    115 H115      -75.7961   20.8947  -73.6276 H         1 UNK         0.0793 
    116 H116      -77.5158   21.2376  -73.5003 H         1 UNK         0.0793 
    117 H117      -78.5960   21.4871  -75.7638 H         1 UNK         0.3047 
    118 H118      -79.2398   22.5144  -78.8925 H         1 UNK         0.0822 
    119 H119      -80.6166   21.8269  -76.2330 H         1 UNK         0.0807 
    120 H120      -79.8929   20.6685  -77.3505 H         1 UNK         0.0807 
    121 H121      -81.2884   21.6043  -77.8405 H         1 UNK         0.0807 
    122 H122      -80.3763   24.4043  -78.7469 H         1 UNK         0.2946 
    123 H123      -80.6965   26.7269  -77.6442 H         1 UNK         0.1144 
    124 H124      -82.3746   25.2957  -78.7910 H         1 UNK         0.0793 
    125 H125      -83.1838   24.9592  -77.2658 H         1 UNK         0.0793 
    126 H126      -83.2064   26.5838  -77.9464 H         1 UNK         0.0793 
    127 H127      -82.4450   26.2915  -75.2748 H         1 UNK         0.2896 
@<TRIPOS>BOND
     1    1    2 1    
     2    1   67 1    
     3    1   68 1    
     4    1   69 1    
     5    2    3 2    
     6    2    4 am   BACKBONE|DICT|INTERRES
     7    4    5 1    
     8    4   70 1    
     9    5    6 1    
    10    5   65 1    
    11    5   71 1    
    12    6    7 1    
    13    6   72 1    
    14    6   73 1    
    15    7    8 1    
    16    8    9 1    
    17    8   74 1    
    18    8   75 1    
    19    9   10 ar   
    20    9   14 ar   
    21   10   11 ar   
    22   10   76 1    
    23   11   12 ar   
    24   11   48 1    
    25   12   13 ar   
    26   12   77 1    
    27   13   14 ar   
    28   13   15 1    
    29   14   78 1    
    30   15   16 1    
    31   15   79 1    
    32   15   80 1    
    33   16   17 1    
    34   17   18 1    
    35   17   81 1    
    36   17   82 1    
    37   18   19 1    
    38   18   22 1    
    39   18   83 1    
    40   19   20 am   BACKBONE|DICT|INTERRES
    41   19   21 2    
    42   20   84 1    
    43   20   85 1    
    44   22   23 am   BACKBONE|DICT|INTERRES
    45   22   86 1    
    46   23   24 2    
    47   23   25 1    
    48   25   26 1    
    49   25   27 1    
    50   25   87 1    
    51   26   88 1    
    52   26   89 1    
    53   26   90 1    
    54   27   28 am   BACKBONE|DICT|INTERRES
    55   27   91 1    
    56   28   29 2    
    57   28   30 1    
    58   30   31 1    
    59   30   32 1    
    60   30   92 1    
    61   31   93 1    
    62   31   94 1    
    63   31   95 1    
    64   32   33 am   BACKBONE|DICT|INTERRES
    65   32   96 1    
    66   33   34 2    
    67   33   35 1    
    68   35   36 1    
    69   35   37 1    
    70   35   97 1    
    71   36   98 1    
    72   36   99 1    
    73   36  100 1    
    74   37   38 am   BACKBONE|DICT|INTERRES
    75   37  101 1    
    76   38   39 2    
    77   38   40 1    
    78   40   41 1    
    79   40   42 1    
    80   40  102 1    
    81   41  103 1    
    82   41  104 1    
    83   41  105 1    
    84   42   43 am   BACKBONE|DICT|INTERRES
    85   42  106 1    
    86   43   44 2    
    87   43   45 1    
    88   45   46 1    
    89   45   49 1    
    90   45  107 1    
    91   46   47 1    
    92   46  108 1    
    93   46  109 1    
    94   47   48 1    
    95   48  110 1    
    96   48  111 1    
    97   49   50 am   BACKBONE|DICT|INTERRES
    98   49  112 1    
    99   50   51 2    
   100   50   52 1    
   101   52   53 1    
   102   52   54 1    
   103   52  113 1    
   104   53  114 1    
   105   53  115 1    
   106   53  116 1    
   107   54   55 am   BACKBONE|DICT|INTERRES
   108   54  117 1    
   109   55   56 2    
   110   55   57 1    
   111   57   58 1    
   112   57   59 1    
   113   57  118 1    
   114   58  119 1    
   115   58  120 1    
   116   58  121 1    
   117   59   60 am   BACKBONE|DICT|INTERRES
   118   59  122 1    
   119   60   61 2    
   120   60   62 1    
   121   62   63 1    
   122   62   64 1    
   123   62  123 1    
   124   63  124 1    
   125   63  125 1    
   126   63  126 1    
   127   64   65 am   BACKBONE|DICT|INTERRES
   128   64  127 1    
   129   65   66 2    
@<TRIPOS>SUBSTRUCTURE
     1 UNK         1 GROUP             0       ****    0 ROOT    
