@<TRIPOS>MOLECULE
3R135
127   129    1
SMALL
USER_CHARGES


@<TRIPOS>ATOM
      1 CA        -81.7380   31.1589  -75.9902 C.3       0 UNK        -0.1998 
      2 C         -81.1563   29.9606  -75.2549 C.2       0 UNK         0.4909 
      3 O         -80.1297   29.4280  -75.6732 O.2       0 UNK        -0.5240 
      4 N         -81.8021   29.5419  -74.1602 N.am      1 UNK        -0.4739 
      5 CA        -81.4130   28.3916  -73.3339 C.3       1 UNK         0.0864 
      6 C6        -82.1301   28.4138  -71.9601 C.3       11 UNK        -0.0881 
      7 S7        -81.8379   29.9682  -71.0479 S.3       11 UNK        -0.2682 
      8 C8        -80.7373   29.4269  -69.7025 C.3       11 UNK         0.0289 
      9 C9        -79.3716   28.9616  -70.1941 C.ar      11 UNK        -0.0687 
     10 C10       -78.9303   27.6646  -69.9143 C.ar      11 UNK        -0.0823 
     11 C11       -77.6494   27.2454  -70.2887 C.ar      11 UNK        -0.0830 
     12 C12       -76.8107   28.1431  -70.9628 C.ar      11 UNK        -0.1021 
     13 C13       -77.2430   29.4379  -71.2601 C.ar      11 UNK        -0.0753 
     14 C14       -78.5236   29.8427  -70.8727 C.ar      11 UNK        -0.0933 
     15 C15       -76.3098   30.4067  -71.9685 C.3       11 UNK         0.0166 
     16 S16       -76.4173   30.2250  -73.7731 S.3       11 UNK        -0.2615 
     17 C17       -75.2240   31.4918  -74.3247 C.3       11 UNK        -0.0865 
     18 CA        -74.0245   30.9175  -75.1265 C.3       10 UNK         0.0862 
     19 C         -73.1375   32.0867  -75.6397 C.2       10 UNK         0.5551 
     20 N         -73.3273   32.5138  -76.8805 N.am      10 UNK        -0.7319 
     21 O         -72.3218   32.6398  -74.9040 O.2       10 UNK        -0.5018 
     22 N         -73.2793   29.9138  -74.3475 N.am      10 UNK        -0.4509 
     23 C         -72.1823   29.2532  -74.7472 C.2       10 UNK         0.4899 
     24 O         -71.6509   29.3974  -75.8488 O.2       10 UNK        -0.4839 
     25 CA        -71.5546   28.2587  -73.7574 C.3       9 UNK         0.0222 
     26 CB        -72.1595   28.3076  -72.3373 C.3       9 UNK        -0.1966 
     27 N         -71.7232   26.9139  -74.2983 N.am      9 UNK        -0.4218 
     28 C         -70.7486   26.0868  -74.6915 C.2       9 UNK         0.5020 
     29 O         -69.5469   26.3517  -74.6261 O.2       9 UNK        -0.5274 
     30 CA        -71.1894   24.7157  -75.2358 C.3       8 UNK         0.0270 
     31 CB        -71.6028   23.7817  -74.0860 C.3       8 UNK        -0.1976 
     32 N         -72.2804   24.8047  -76.2103 N.am      8 UNK        -0.4313 
     33 C         -72.1520   25.2892  -77.4542 C.2       8 UNK         0.5041 
     34 O         -71.0877   25.6888  -77.9282 O.2       8 UNK        -0.5577 
     35 CA        -73.4213   25.3288  -78.3236 C.3       7 UNK         0.0284 
     36 CB        -73.7012   23.9555  -78.9554 C.3       7 UNK        -0.1958 
     37 N         -74.5921   25.7776  -77.5691 N.am      7 UNK        -0.4454 
     38 C         -74.7927   27.0446  -77.1810 C.2       7 UNK         0.5089 
     39 O         -74.0810   27.9855  -77.5290 O.2       7 UNK        -0.5125 
     40 CA        -75.9769   27.3137  -76.2382 C.3       6 UNK         0.0408 
     41 CB        -77.2362   27.6736  -77.0382 C.3       6 UNK        -0.1791 
     42 N         -76.2738   26.1966  -75.3401 N.am      6 UNK        -0.4762 
     43 C         -75.4587   25.7461  -74.3772 C.2       6 UNK         0.5007 
     44 O         -74.3738   26.2574  -74.1124 O.2       6 UNK        -0.5032 
     45 CA        -75.8868   24.4619  -73.6419 C.3       5 UNK         0.0783 
     46 C46       -76.8244   24.7474  -72.4452 C.3       11 UNK        -0.0857 
     47 S47       -75.8817   25.1244  -70.9352 S.3       11 UNK        -0.2512 
     48 C48       -77.1874   25.8446  -69.8850 C.3       11 UNK         0.0225 
     49 N         -76.4640   23.4883  -74.5688 N.am      5 UNK        -0.4615 
     50 C         -75.7596   22.8154  -75.4872 C.2       4 UNK         0.5053 
     51 O         -74.5428   22.9316  -75.6324 O.2       4 UNK        -0.5105 
     52 CA        -76.5540   21.8869  -76.4203 C.3       4 UNK         0.0263 
     53 CB        -76.7518   20.5087  -75.7702 C.3       4 UNK        -0.1981 
     54 N         -77.8562   22.4474  -76.7941 N.am      4 UNK        -0.4224 
     55 C         -78.0088   23.5248  -77.5769 C.2       3 UNK         0.4895 
     56 O         -77.0714   24.1294  -78.0972 O.2       3 UNK        -0.5091 
     57 CA        -79.4450   24.0384  -77.7814 C.3       3 UNK         0.0250 
     58 CB        -80.1517   23.2396  -78.8883 C.3       3 UNK        -0.1996 
     59 N         -80.2729   24.0395  -76.5666 N.am      3 UNK        -0.4254 
     60 C         -79.9724   24.6996  -75.4394 C.2       2 UNK         0.5004 
     61 O         -78.9028   25.2794  -75.2504 O.2       2 UNK        -0.5226 
     62 CA        -81.0147   24.6902  -74.3132 C.3       2 UNK         0.0269 
     63 CB        -80.6977   23.5855  -73.2928 C.3       2 UNK        -0.1926 
     64 N         -81.0039   25.9893  -73.6357 N.am      2 UNK        -0.4687 
     65 C         -81.6858   27.0584  -74.0656 C.2       1 UNK         0.5165 
     66 O         -82.5216   27.0072  -74.9733 O.2       1 UNK        -0.5079 
     67 H67       -81.0048   31.9638  -76.0336 H         1 UNK         0.0900 
     68 H68       -82.6338   31.5421  -75.5016 H         1 UNK         0.0900 
     69 H69       -82.0004   30.8808  -77.0107 H         1 UNK         0.0900 
     70 H70       -82.6441   30.0162  -73.8681 H         1 UNK         0.2959 
     71 H71       -80.3354   28.4586  -73.1628 H         1 UNK         0.1079 
     72 H72       -81.8114   27.5712  -71.3435 H         1 UNK         0.0837 
     73 H73       -83.2082   28.2994  -72.0901 H         1 UNK         0.0837 
     74 H74       -80.5935   30.2617  -69.0152 H         1 UNK         0.0685 
     75 H75       -81.2370   28.6446  -69.1289 H         1 UNK         0.0685 
     76 H76       -79.5758   26.9867  -69.3720 H         1 UNK         0.1434 
     77 H77       -75.8110   27.8479  -71.2490 H         1 UNK         0.1329 
     78 H78       -78.8580   30.8488  -71.0867 H         1 UNK         0.1335 
     79 H79       -76.5557   31.4336  -71.6929 H         1 UNK         0.0680 
     80 H80       -75.2816   30.2365  -71.6455 H         1 UNK         0.0680 
     81 H81       -75.7777   32.2045  -74.9392 H         1 UNK         0.1032 
     82 H82       -74.8661   32.0610  -73.4643 H         1 UNK         0.1032 
     83 H83       -74.4231   30.3916  -75.9963 H         1 UNK         0.0461 
     84 H84       -73.9973   32.0678  -77.4877 H         1 UNK         0.3453 
     85 H85       -72.7742   33.2831  -77.2247 H         1 UNK         0.3453 
     86 H86       -73.6475   29.7157  -73.4305 H         1 UNK         0.2984 
     87 H87       -70.4955   28.5125  -73.6817 H         1 UNK         0.0554 
     88 H88       -71.6379   27.6196  -71.6718 H         1 UNK         0.0847 
     89 H89       -73.2145   28.0298  -72.3264 H         1 UNK         0.0847 
     90 H90       -72.0663   29.3026  -71.8999 H         1 UNK         0.0847 
     91 H91       -72.6926   26.6044  -74.3843 H         1 UNK         0.3141 
     92 H92       -70.3293   24.2673  -75.7379 H         1 UNK         0.0743 
     93 H93       -72.4716   24.1616  -73.5475 H         1 UNK         0.0784 
     94 H94       -71.8479   22.7849  -74.4536 H         1 UNK         0.0784 
     95 H95       -70.7935   23.6714  -73.3630 H         1 UNK         0.0784 
     96 H96       -73.1791   24.4267  -75.9278 H         1 UNK         0.3213 
     97 H97       -73.2463   26.0398  -79.1342 H         1 UNK         0.0855 
     98 H98       -73.8806   23.1881  -78.2026 H         1 UNK         0.0814 
     99 H99       -72.8548   23.6265  -79.5596 H         1 UNK         0.0814 
    100 H100      -74.5728   23.9909  -79.6094 H         1 UNK         0.0814 
    101 H101      -75.2847   25.0801  -77.3222 H         1 UNK         0.3105 
    102 H102      -75.7068   28.1689  -75.6193 H         1 UNK         0.0547 
    103 H103      -77.5480   26.8571  -77.6896 H         1 UNK         0.0837 
    104 H104      -78.0683   27.9076  -76.3745 H         1 UNK         0.0837 
    105 H105      -77.0642   28.5490  -77.6653 H         1 UNK         0.0837 
    106 H106      -77.1875   25.7559  -75.4452 H         1 UNK         0.3020 
    107 H107      -74.9727   24.0046  -73.2551 H         1 UNK         0.1245 
    108 H108      -77.5326   25.5489  -72.6669 H         1 UNK         0.0781 
    109 H109      -77.4251   23.8660  -72.2174 H         1 UNK         0.0781 
    110 H110      -78.0352   25.1577  -69.8684 H         1 UNK         0.0836 
    111 H111      -76.8127   25.8939  -68.8619 H         1 UNK         0.0836 
    112 H112      -77.4688   23.3978  -74.5625 H         1 UNK         0.3022 
    113 H113      -75.9670   21.7533  -77.3317 H         1 UNK         0.0747 
    114 H114      -77.2460   19.8161  -76.4519 H         1 UNK         0.0793 
    115 H115      -75.7924   20.0650  -75.5000 H         1 UNK         0.0793 
    116 H116      -77.3502   20.5700  -74.8603 H         1 UNK         0.0793 
    117 H117      -78.6797   22.0060  -76.4115 H         1 UNK         0.3047 
    118 H118      -79.3668   25.0756  -78.1140 H         1 UNK         0.0822 
    119 H119      -81.1225   23.6717  -79.1319 H         1 UNK         0.0807 
    120 H120      -80.3091   22.1992  -78.6012 H         1 UNK         0.0807 
    121 H121      -79.5617   23.2386  -79.8062 H         1 UNK         0.0807 
    122 H122      -81.1644   23.5691  -76.6318 H         1 UNK         0.2946 
    123 H123      -82.0037   24.5026  -74.7382 H         1 UNK         0.1144 
    124 H124      -81.4429   23.5581  -72.4975 H         1 UNK         0.0793 
    125 H125      -79.7220   23.7281  -72.8293 H         1 UNK         0.0793 
    126 H126      -80.6952   22.6027  -73.7661 H         1 UNK         0.0793 
    127 H127      -80.3077   26.1101  -72.9147 H         1 UNK         0.2896 
@<TRIPOS>BOND
     1    1    2 1    
     2    1   67 1    
     3    1   68 1    
     4    1   69 1    
     5    2    3 2    
     6    2    4 am   BACKBONE|DICT|INTERRES
     7    4    5 1    
     8    4   70 1    
     9    5    6 1    
    10    5   65 1    
    11    5   71 1    
    12    6    7 1    
    13    6   72 1    
    14    6   73 1    
    15    7    8 1    
    16    8    9 1    
    17    8   74 1    
    18    8   75 1    
    19    9   10 ar   
    20    9   14 ar   
    21   10   11 ar   
    22   10   76 1    
    23   11   12 ar   
    24   11   48 1    
    25   12   13 ar   
    26   12   77 1    
    27   13   14 ar   
    28   13   15 1    
    29   14   78 1    
    30   15   16 1    
    31   15   79 1    
    32   15   80 1    
    33   16   17 1    
    34   17   18 1    
    35   17   81 1    
    36   17   82 1    
    37   18   19 1    
    38   18   22 1    
    39   18   83 1    
    40   19   20 am   BACKBONE|DICT|INTERRES
    41   19   21 2    
    42   20   84 1    
    43   20   85 1    
    44   22   23 am   BACKBONE|DICT|INTERRES
    45   22   86 1    
    46   23   24 2    
    47   23   25 1    
    48   25   26 1    
    49   25   27 1    
    50   25   87 1    
    51   26   88 1    
    52   26   89 1    
    53   26   90 1    
    54   27   28 am   BACKBONE|DICT|INTERRES
    55   27   91 1    
    56   28   29 2    
    57   28   30 1    
    58   30   31 1    
    59   30   32 1    
    60   30   92 1    
    61   31   93 1    
    62   31   94 1    
    63   31   95 1    
    64   32   33 am   BACKBONE|DICT|INTERRES
    65   32   96 1    
    66   33   34 2    
    67   33   35 1    
    68   35   36 1    
    69   35   37 1    
    70   35   97 1    
    71   36   98 1    
    72   36   99 1    
    73   36  100 1    
    74   37   38 am   BACKBONE|DICT|INTERRES
    75   37  101 1    
    76   38   39 2    
    77   38   40 1    
    78   40   41 1    
    79   40   42 1    
    80   40  102 1    
    81   41  103 1    
    82   41  104 1    
    83   41  105 1    
    84   42   43 am   BACKBONE|DICT|INTERRES
    85   42  106 1    
    86   43   44 2    
    87   43   45 1    
    88   45   46 1    
    89   45   49 1    
    90   45  107 1    
    91   46   47 1    
    92   46  108 1    
    93   46  109 1    
    94   47   48 1    
    95   48  110 1    
    96   48  111 1    
    97   49   50 am   BACKBONE|DICT|INTERRES
    98   49  112 1    
    99   50   51 2    
   100   50   52 1    
   101   52   53 1    
   102   52   54 1    
   103   52  113 1    
   104   53  114 1    
   105   53  115 1    
   106   53  116 1    
   107   54   55 am   BACKBONE|DICT|INTERRES
   108   54  117 1    
   109   55   56 2    
   110   55   57 1    
   111   57   58 1    
   112   57   59 1    
   113   57  118 1    
   114   58  119 1    
   115   58  120 1    
   116   58  121 1    
   117   59   60 am   BACKBONE|DICT|INTERRES
   118   59  122 1    
   119   60   61 2    
   120   60   62 1    
   121   62   63 1    
   122   62   64 1    
   123   62  123 1    
   124   63  124 1    
   125   63  125 1    
   126   63  126 1    
   127   64   65 am   BACKBONE|DICT|INTERRES
   128   64  127 1    
   129   65   66 2    
@<TRIPOS>SUBSTRUCTURE
     1 UNK         1 GROUP             0       ****    0 ROOT    
