@<TRIPOS>MOLECULE
3R135
127   129    1
SMALL
USER_CHARGES


@<TRIPOS>ATOM
      1 CA        -84.1108   24.9689  -68.6628 C.3       0 UNK        -0.1998 
      2 C         -83.7925   25.1160  -70.1431 C.2       0 UNK         0.4909 
      3 O         -84.5984   24.7186  -70.9851 O.2       0 UNK        -0.5240 
      4 N         -82.6240   25.6862  -70.4663 N.am      1 UNK        -0.4739 
      5 CA        -82.1511   25.9148  -71.8399 C.3       1 UNK         0.0864 
      6 C6        -80.9490   26.8933  -71.8817 C.3       11 UNK        -0.0881 
      7 S7        -81.3637   28.5162  -71.1613 S.3       11 UNK        -0.2682 
      8 C8        -81.3274   29.5936  -72.6357 C.3       11 UNK         0.0289 
      9 C9        -79.9401   30.0536  -73.0943 C.ar      11 UNK        -0.0687 
     10 C10       -79.8096   30.5821  -74.3819 C.ar      11 UNK        -0.0823 
     11 C11       -78.5914   31.1033  -74.8258 C.ar      11 UNK        -0.0830 
     12 C12       -77.4889   31.0910  -73.9658 C.ar      11 UNK        -0.1021 
     13 C13       -77.5836   30.5377  -72.6817 C.ar      11 UNK        -0.0753 
     14 C14       -78.8154   30.0283  -72.2576 C.ar      11 UNK        -0.0933 
     15 C15       -76.4095   30.4913  -71.6975 C.3       11 UNK         0.0166 
     16 S16       -74.8083   31.1169  -72.3171 S.3       11 UNK        -0.2615 
     17 C17       -74.2856   29.7591  -73.4182 C.3       11 UNK        -0.0865 
     18 CA        -72.9993   29.0570  -72.9144 C.3       10 UNK         0.0862 
     19 C         -73.3016   28.0315  -71.7889 C.2       10 UNK         0.5551 
     20 N         -73.0750   28.3960  -70.5344 N.am      10 UNK        -0.7319 
     21 O         -73.7771   26.9281  -72.0437 O.2       10 UNK        -0.5018 
     22 N         -72.2721   28.4367  -74.0286 N.am      10 UNK        -0.4509 
     23 C         -70.9715   28.1161  -73.9938 C.2       10 UNK         0.4899 
     24 O         -70.2316   28.3710  -73.0417 O.2       10 UNK        -0.4839 
     25 CA        -70.4004   27.4156  -75.2430 C.3       9 UNK         0.0222 
     26 CB        -68.9889   26.8302  -75.0221 C.3       9 UNK        -0.1966 
     27 N         -71.3095   26.4070  -75.7966 N.am      9 UNK        -0.4218 
     28 C         -71.7631   25.2940  -75.1961 C.2       9 UNK         0.5020 
     29 O         -71.3920   24.9165  -74.0841 O.2       9 UNK        -0.5274 
     30 CA        -72.8127   24.4548  -75.9513 C.3       8 UNK         0.0270 
     31 CB        -74.0846   24.2782  -75.1075 C.3       8 UNK        -0.1976 
     32 N         -73.1861   25.0541  -77.2345 N.am      8 UNK        -0.4313 
     33 C         -72.6717   24.7117  -78.4234 C.2       8 UNK         0.5041 
     34 O         -71.8983   23.7683  -78.5900 O.2       8 UNK        -0.5577 
     35 CA        -73.0513   25.5914  -79.6294 C.3       7 UNK         0.0284 
     36 CB        -74.1585   24.9289  -80.4647 C.3       7 UNK        -0.1958 
     37 N         -73.4556   26.9499  -79.2449 N.am      7 UNK        -0.4454 
     38 C         -72.6045   27.8724  -78.7686 C.2       7 UNK         0.5089 
     39 O         -71.3992   27.6704  -78.6262 O.2       7 UNK        -0.5125 
     40 CA        -73.1838   29.2239  -78.3159 C.3       6 UNK         0.0408 
     41 CB        -73.0848   30.2562  -79.4491 C.3       6 UNK        -0.1791 
     42 N         -74.5677   29.1552  -77.8441 N.am      6 UNK        -0.4762 
     43 C         -75.0026   28.4448  -76.7951 C.2       6 UNK         0.5007 
     44 O         -74.2586   27.7474  -76.1002 O.2       6 UNK        -0.5032 
     45 CA        -76.5172   28.4928  -76.4753 C.3       5 UNK         0.0783 
     46 C46       -77.3669   29.4073  -77.4043 C.3       11 UNK        -0.0857 
     47 S47       -77.0334   31.1860  -77.1619 S.3       11 UNK        -0.2512 
     48 C48       -78.4941   31.7301  -76.2141 C.3       11 UNK         0.0225 
     49 N         -77.0794   27.1422  -76.3999 N.am      5 UNK        -0.4615 
     50 C         -77.0441   26.2051  -77.3548 C.2       4 UNK         0.5053 
     51 O         -76.4791   26.3683  -78.4378 O.2       4 UNK        -0.5105 
     52 CA        -77.7597   24.8694  -77.0534 C.3       4 UNK         0.0263 
     53 CB        -77.4626   23.7954  -78.1174 C.3       4 UNK        -0.1981 
     54 N         -77.4560   24.3078  -75.7319 N.am      4 UNK        -0.4224 
     55 C         -77.8957   24.7665  -74.5539 C.2       3 UNK         0.4895 
     56 O         -78.5872   25.7788  -74.4246 O.2       3 UNK        -0.5091 
     57 CA        -77.4878   23.9713  -73.3050 C.3       3 UNK         0.0250 
     58 CB        -76.6701   24.8470  -72.3408 C.3       3 UNK        -0.1996 
     59 N         -78.6859   23.4968  -72.6197 N.am      3 UNK        -0.4254 
     60 C         -79.4694   22.4966  -73.0472 C.2       2 UNK         0.5004 
     61 O         -79.1785   21.7462  -73.9794 O.2       2 UNK        -0.5226 
     62 CA        -80.8183   22.3238  -72.3252 C.3       2 UNK         0.0269 
     63 CB        -80.6950   21.3092  -71.1772 C.3       2 UNK        -0.1926 
     64 N         -81.3412   23.5908  -71.8017 N.am      2 UNK        -0.4687 
     65 C         -81.7857   24.6030  -72.5642 C.2       1 UNK         0.5165 
     66 O         -81.8994   24.5347  -73.7886 O.2       1 UNK        -0.5079 
     67 H67       -83.3160   25.3682  -68.0330 H         1 UNK         0.0900 
     68 H68       -84.2474   23.9175  -68.4112 H         1 UNK         0.0900 
     69 H69       -85.0318   25.4995  -68.4229 H         1 UNK         0.0900 
     70 H70       -82.0166   26.0261  -69.7339 H         1 UNK         0.2959 
     71 H71       -82.9725   26.3638  -72.4033 H         1 UNK         0.1079 
     72 H72       -80.5999   27.0344  -72.9073 H         1 UNK         0.0837 
     73 H73       -80.0983   26.4859  -71.3323 H         1 UNK         0.0837 
     74 H74       -81.8428   29.0872  -73.4536 H         1 UNK         0.0685 
     75 H75       -81.9154   30.4844  -72.4111 H         1 UNK         0.0685 
     76 H76       -80.6737   30.6158  -75.0320 H         1 UNK         0.1434 
     77 H77       -76.5608   31.5209  -74.3127 H         1 UNK         0.1329 
     78 H78       -78.8934   29.6338  -71.2546 H         1 UNK         0.1335 
     79 H79       -76.6780   31.0821  -70.8207 H         1 UNK         0.0680 
     80 H80       -76.2729   29.4671  -71.3462 H         1 UNK         0.0680 
     81 H81       -74.1063   30.2097  -74.3956 H         1 UNK         0.1032 
     82 H82       -75.0954   29.0419  -73.5642 H         1 UNK         0.1032 
     83 H83       -72.3411   29.8280  -72.5071 H         1 UNK         0.0461 
     84 H84       -73.2786   27.7472  -69.7909 H         1 UNK         0.3453 
     85 H85       -72.7043   29.3082  -70.3186 H         1 UNK         0.3453 
     86 H86       -72.8378   28.1316  -74.8149 H         1 UNK         0.2984 
     87 H87       -70.3142   28.1904  -76.0060 H         1 UNK         0.0554 
     88 H88       -68.6081   26.3601  -75.9287 H         1 UNK         0.0847 
     89 H89       -68.9777   26.0846  -74.2267 H         1 UNK         0.0847 
     90 H90       -68.2814   27.6118  -74.7428 H         1 UNK         0.0847 
     91 H91       -71.6455   26.6076  -76.7300 H         1 UNK         0.3141 
     92 H92       -72.3746   23.4675  -76.1108 H         1 UNK         0.0743 
     93 H93       -74.5973   25.2283  -74.9517 H         1 UNK         0.0784 
     94 H94       -74.7745   23.5898  -75.5926 H         1 UNK         0.0784 
     95 H95       -73.8563   23.8641  -74.1244 H         1 UNK         0.0784 
     96 H96       -73.7991   25.8598  -77.1856 H         1 UNK         0.3213 
     97 H97       -72.1632   25.6740  -80.2603 H         1 UNK         0.0855 
     98 H98       -75.0648   24.7641  -79.8837 H         1 UNK         0.0814 
     99 H99       -73.8333   23.9558  -80.8352 H         1 UNK         0.0814 
    100 H100      -74.4200   25.5342  -81.3326 H         1 UNK         0.0814 
    101 H101      -74.4458   27.1618  -79.2785 H         1 UNK         0.3105 
    102 H102      -72.5730   29.5756  -77.4816 H         1 UNK         0.0547 
    103 H103      -72.0568   30.3513  -79.8018 H         1 UNK         0.0837 
    104 H104      -73.6985   29.9763  -80.3062 H         1 UNK         0.0837 
    105 H105      -73.4026   31.2443  -79.1157 H         1 UNK         0.0837 
    106 H106      -75.2440   29.7175  -78.3427 H         1 UNK         0.3020 
    107 H107      -76.5916   28.8881  -75.4626 H         1 UNK         0.1245 
    108 H108      -77.2225   29.1512  -78.4555 H         1 UNK         0.0781 
    109 H109      -78.4274   29.2343  -77.2135 H         1 UNK         0.0781 
    110 H110      -78.4500   32.8140  -76.1006 H         1 UNK         0.0836 
    111 H111      -79.3897   31.5213  -76.8015 H         1 UNK         0.0836 
    112 H112      -77.5720   26.9048  -75.5424 H         1 UNK         0.3022 
    113 H113      -78.8306   25.0804  -77.0881 H         1 UNK         0.0747 
    114 H114      -77.7323   24.1433  -79.1157 H         1 UNK         0.0793 
    115 H115      -76.4044   23.5315  -78.1375 H         1 UNK         0.0793 
    116 H116      -78.0329   22.8847  -77.9329 H         1 UNK         0.0793 
    117 H117      -76.9006   23.4651  -75.7343 H         1 UNK         0.3047 
    118 H118      -76.8795   23.1117  -73.5952 H         1 UNK         0.0822 
    119 H119      -76.3554   24.2842  -71.4620 H         1 UNK         0.0807 
    120 H120      -77.2356   25.7150  -71.9985 H         1 UNK         0.0807 
    121 H121      -75.7672   25.2221  -72.8223 H         1 UNK         0.0807 
    122 H122      -79.0249   24.0682  -71.8608 H         1 UNK         0.2946 
    123 H123      -81.5319   21.9350  -73.0555 H         1 UNK         0.1144 
    124 H124      -80.0008   21.6493  -70.4077 H         1 UNK         0.0793 
    125 H125      -80.3297   20.3489  -71.5442 H         1 UNK         0.0793 
    126 H126      -81.6600   21.1270  -70.7036 H         1 UNK         0.0793 
    127 H127      -81.3160   23.7226  -70.8006 H         1 UNK         0.2896 
@<TRIPOS>BOND
     1    1    2 1    
     2    1   67 1    
     3    1   68 1    
     4    1   69 1    
     5    2    3 2    
     6    2    4 am   BACKBONE|DICT|INTERRES
     7    4    5 1    
     8    4   70 1    
     9    5    6 1    
    10    5   65 1    
    11    5   71 1    
    12    6    7 1    
    13    6   72 1    
    14    6   73 1    
    15    7    8 1    
    16    8    9 1    
    17    8   74 1    
    18    8   75 1    
    19    9   10 ar   
    20    9   14 ar   
    21   10   11 ar   
    22   10   76 1    
    23   11   12 ar   
    24   11   48 1    
    25   12   13 ar   
    26   12   77 1    
    27   13   14 ar   
    28   13   15 1    
    29   14   78 1    
    30   15   16 1    
    31   15   79 1    
    32   15   80 1    
    33   16   17 1    
    34   17   18 1    
    35   17   81 1    
    36   17   82 1    
    37   18   19 1    
    38   18   22 1    
    39   18   83 1    
    40   19   20 am   BACKBONE|DICT|INTERRES
    41   19   21 2    
    42   20   84 1    
    43   20   85 1    
    44   22   23 am   BACKBONE|DICT|INTERRES
    45   22   86 1    
    46   23   24 2    
    47   23   25 1    
    48   25   26 1    
    49   25   27 1    
    50   25   87 1    
    51   26   88 1    
    52   26   89 1    
    53   26   90 1    
    54   27   28 am   BACKBONE|DICT|INTERRES
    55   27   91 1    
    56   28   29 2    
    57   28   30 1    
    58   30   31 1    
    59   30   32 1    
    60   30   92 1    
    61   31   93 1    
    62   31   94 1    
    63   31   95 1    
    64   32   33 am   BACKBONE|DICT|INTERRES
    65   32   96 1    
    66   33   34 2    
    67   33   35 1    
    68   35   36 1    
    69   35   37 1    
    70   35   97 1    
    71   36   98 1    
    72   36   99 1    
    73   36  100 1    
    74   37   38 am   BACKBONE|DICT|INTERRES
    75   37  101 1    
    76   38   39 2    
    77   38   40 1    
    78   40   41 1    
    79   40   42 1    
    80   40  102 1    
    81   41  103 1    
    82   41  104 1    
    83   41  105 1    
    84   42   43 am   BACKBONE|DICT|INTERRES
    85   42  106 1    
    86   43   44 2    
    87   43   45 1    
    88   45   46 1    
    89   45   49 1    
    90   45  107 1    
    91   46   47 1    
    92   46  108 1    
    93   46  109 1    
    94   47   48 1    
    95   48  110 1    
    96   48  111 1    
    97   49   50 am   BACKBONE|DICT|INTERRES
    98   49  112 1    
    99   50   51 2    
   100   50   52 1    
   101   52   53 1    
   102   52   54 1    
   103   52  113 1    
   104   53  114 1    
   105   53  115 1    
   106   53  116 1    
   107   54   55 am   BACKBONE|DICT|INTERRES
   108   54  117 1    
   109   55   56 2    
   110   55   57 1    
   111   57   58 1    
   112   57   59 1    
   113   57  118 1    
   114   58  119 1    
   115   58  120 1    
   116   58  121 1    
   117   59   60 am   BACKBONE|DICT|INTERRES
   118   59  122 1    
   119   60   61 2    
   120   60   62 1    
   121   62   63 1    
   122   62   64 1    
   123   62  123 1    
   124   63  124 1    
   125   63  125 1    
   126   63  126 1    
   127   64   65 am   BACKBONE|DICT|INTERRES
   128   64  127 1    
   129   65   66 2    
@<TRIPOS>SUBSTRUCTURE
     1 UNK         1 GROUP             0       ****    0 ROOT    
