@<TRIPOS>MOLECULE
3R135
127   129    1
SMALL
USER_CHARGES


@<TRIPOS>ATOM
      1 CA        -80.9845   22.0108  -72.3482 C.3       0 UNK        -0.1998 
      2 C         -81.4752   23.3312  -72.9210 C.2       0 UNK         0.4909 
      3 O         -81.8698   23.3803  -74.0867 O.2       0 UNK        -0.5240 
      4 N         -81.4440   24.3993  -72.1109 N.am      1 UNK        -0.4739 
      5 CA        -81.8359   25.7688  -72.4665 C.3       1 UNK         0.0864 
      6 C6        -81.7248   26.7707  -71.2713 C.3       11 UNK        -0.0881 
      7 S7        -80.5483   26.4204  -69.8969 S.3       11 UNK        -0.2682 
      8 C8        -78.9126   26.1200  -70.6527 C.3       11 UNK         0.0289 
      9 C9        -78.0635   27.3707  -70.8553 C.ar      11 UNK        -0.0687 
     10 C10       -78.5258   28.4227  -71.6483 C.ar      11 UNK        -0.0823 
     11 C11       -77.7248   29.5408  -71.8897 C.ar      11 UNK        -0.0830 
     12 C12       -76.4613   29.6218  -71.3035 C.ar      11 UNK        -0.1021 
     13 C13       -75.9585   28.5564  -70.5541 C.ar      11 UNK        -0.0753 
     14 C14       -76.7703   27.4393  -70.3214 C.ar      11 UNK        -0.0933 
     15 C15       -74.5308   28.6018  -70.0242 C.3       11 UNK         0.0166 
     16 S16       -73.2969   28.3903  -71.3582 S.3       11 UNK        -0.2615 
     17 C17       -73.0235   30.1075  -71.9273 C.3       11 UNK        -0.0865 
     18 CA        -73.6185   30.3930  -73.3393 C.3       10 UNK         0.0862 
     19 C         -73.7761   31.9157  -73.6417 C.2       10 UNK         0.5551 
     20 N         -73.6726   32.3558  -74.8901 N.am      10 UNK        -0.7319 
     21 O         -74.0297   32.7101  -72.7394 O.2       10 UNK        -0.5018 
     22 N         -72.9789   29.6182  -74.4148 N.am      10 UNK        -0.4509 
     23 C         -71.7177   29.7209  -74.8505 C.2       10 UNK         0.4899 
     24 O         -70.8699   30.4686  -74.3600 O.2       10 UNK        -0.4839 
     25 CA        -71.3716   28.8253  -76.0554 C.3       9 UNK         0.0222 
     26 CB        -69.9169   28.9869  -76.5474 C.3       9 UNK        -0.1966 
     27 N         -71.7020   27.4202  -75.7904 N.am      9 UNK        -0.4218 
     28 C         -71.1599   26.6206  -74.8584 C.2       9 UNK         0.5020 
     29 O         -70.2077   26.9399  -74.1448 O.2       9 UNK        -0.5274 
     30 CA        -71.7833   25.2270  -74.6662 C.3       8 UNK         0.0270 
     31 CB        -72.4321   25.1199  -73.2753 C.3       8 UNK        -0.1976 
     32 N         -72.7798   24.8830  -75.6859 N.am      8 UNK        -0.4313 
     33 C         -72.4894   24.3400  -76.8755 C.2       8 UNK         0.5041 
     34 O         -71.3416   24.1101  -77.2587 O.2       8 UNK        -0.5577 
     35 CA        -73.6724   23.9790  -77.7907 C.3       7 UNK         0.0284 
     36 CB        -74.3276   22.6665  -77.3329 C.3       7 UNK        -0.1958 
     37 N         -74.6875   25.0318  -77.8932 N.am      7 UNK        -0.4454 
     38 C         -74.4880   26.2132  -78.4954 C.2       7 UNK         0.5089 
     39 O         -73.4120   26.5630  -78.9807 O.2       7 UNK        -0.5125 
     40 CA        -75.6886   27.1729  -78.5681 C.3       6 UNK         0.0408 
     41 CB        -76.6656   26.7484  -79.6758 C.3       6 UNK        -0.1791 
     42 N         -76.4061   27.2843  -77.2994 N.am      6 UNK        -0.4762 
     43 C         -75.8877   27.8106  -76.1799 C.2       6 UNK         0.5007 
     44 O         -74.7540   28.2837  -76.1029 O.2       6 UNK        -0.5032 
     45 CA        -76.7744   27.7412  -74.9224 C.3       5 UNK         0.0783 
     46 C46       -77.9140   28.7957  -74.9959 C.3       11 UNK        -0.0857 
     47 S47       -77.3846   30.4619  -74.4702 S.3       11 UNK        -0.2512 
     48 C48       -78.1924   30.6280  -72.8428 C.3       11 UNK         0.0225 
     49 N         -77.2866   26.3812  -74.7054 N.am      5 UNK        -0.4615 
     50 C         -76.5476   25.2639  -74.6249 C.2       4 UNK         0.5053 
     51 O         -75.3196   25.2538  -74.6353 O.2       4 UNK        -0.5105 
     52 CA        -77.2877   23.9163  -74.6136 C.3       4 UNK         0.0263 
     53 CB        -77.6029   23.4335  -73.1918 C.3       4 UNK        -0.1981 
     54 N         -78.5039   23.9397  -75.4257 N.am      4 UNK        -0.4224 
     55 C         -78.5047   23.9910  -76.7647 C.2       3 UNK         0.4895 
     56 O         -77.4836   23.9668  -77.4535 O.2       3 UNK        -0.5091 
     57 CA        -79.8764   24.1410  -77.4404 C.3       3 UNK         0.0250 
     58 CB        -80.6160   22.7944  -77.4856 C.3       3 UNK        -0.1996 
     59 N         -80.7105   25.1457  -76.7747 N.am      3 UNK        -0.4254 
     60 C         -80.4476   26.4608  -76.7910 C.2       2 UNK         0.5004 
     61 O         -79.5004   26.9583  -77.4018 O.2       2 UNK        -0.5226 
     62 CA        -81.3716   27.3774  -75.9643 C.3       2 UNK         0.0269 
     63 CB        -82.5568   27.8496  -76.8210 C.3       2 UNK        -0.1926 
     64 N         -81.8783   26.7938  -74.7130 N.am      2 UNK        -0.4687 
     65 C         -81.1172   26.2855  -73.7325 C.2       1 UNK         0.5165 
     66 O         -79.8935   26.2061  -73.8073 O.2       1 UNK        -0.5079 
     67 H67       -81.8172   21.3158  -72.2447 H         1 UNK         0.0900 
     68 H68       -80.2488   21.5625  -73.0153 H         1 UNK         0.0900 
     69 H69       -80.5213   22.1380  -71.3699 H         1 UNK         0.0900 
     70 H70       -81.1016   24.2960  -71.1659 H         1 UNK         0.2959 
     71 H71       -82.8946   25.7020  -72.7270 H         1 UNK         0.1079 
     72 H72       -82.7031   26.8051  -70.7890 H         1 UNK         0.0837 
     73 H73       -81.5763   27.7956  -71.6137 H         1 UNK         0.0837 
     74 H74       -79.0295   25.6163  -71.6023 H         1 UNK         0.0685 
     75 H75       -78.3831   25.4144  -70.0110 H         1 UNK         0.0685 
     76 H76       -79.4959   28.3538  -72.1137 H         1 UNK         0.1434 
     77 H77       -75.8488   30.4939  -71.4799 H         1 UNK         0.1329 
     78 H78       -76.3845   26.6115  -69.7424 H         1 UNK         0.1335 
     79 H79       -74.3793   27.8051  -69.2944 H         1 UNK         0.0680 
     80 H80       -74.3600   29.5346  -69.4856 H         1 UNK         0.0680 
     81 H81       -71.9513   30.3070  -71.9208 H         1 UNK         0.1032 
     82 H82       -73.4427   30.7849  -71.1826 H         1 UNK         0.1032 
     83 H83       -74.6420   30.0248  -73.3368 H         1 UNK         0.0461 
     84 H84       -73.4899   31.7125  -75.6429 H         1 UNK         0.3453 
     85 H85       -73.7886   33.3386  -75.0793 H         1 UNK         0.3453 
     86 H86       -73.6072   29.0138  -74.9417 H         1 UNK         0.2984 
     87 H87       -72.0256   29.1390  -76.8706 H         1 UNK         0.0554 
     88 H88       -69.7252   30.0151  -76.8563 H         1 UNK         0.0847 
     89 H89       -69.7157   28.3472  -77.4065 H         1 UNK         0.0847 
     90 H90       -69.1912   28.7445  -75.7707 H         1 UNK         0.0847 
     91 H91       -72.4974   27.0592  -76.3004 H         1 UNK         0.3141 
     92 H92       -70.9690   24.5006  -74.7102 H         1 UNK         0.0743 
     93 H93       -71.6971   25.2820  -72.4859 H         1 UNK         0.0784 
     94 H94       -73.2180   25.8641  -73.1408 H         1 UNK         0.0784 
     95 H95       -72.8711   24.1354  -73.1138 H         1 UNK         0.0784 
     96 H96       -73.7567   25.0308  -75.4254 H         1 UNK         0.3213 
     97 H97       -73.2707   23.8162  -78.7934 H         1 UNK         0.0855 
     98 H98       -74.7326   22.7485  -76.3249 H         1 UNK         0.0814 
     99 H99       -73.6023   21.8518  -77.3255 H         1 UNK         0.0814 
    100 H100      -75.1393   22.3722  -77.9986 H         1 UNK         0.0814 
    101 H101      -75.6191   24.8094  -77.5549 H         1 UNK         0.3105 
    102 H102      -75.3060   28.1644  -78.8195 H         1 UNK         0.0547 
    103 H103      -77.4774   27.4679  -79.7846 H         1 UNK         0.0837 
    104 H104      -76.1587   26.6825  -80.6394 H         1 UNK         0.0837 
    105 H105      -77.1110   25.7738  -79.4736 H         1 UNK         0.0837 
    106 H106      -77.3581   26.9329  -77.2760 H         1 UNK         0.3020 
    107 H107      -76.1431   27.9626  -74.0584 H         1 UNK         0.1245 
    108 H108      -78.7532   28.4931  -74.3736 H         1 UNK         0.0781 
    109 H109      -78.3283   28.8745  -76.0021 H         1 UNK         0.0781 
    110 H110      -79.2758   30.5977  -72.9688 H         1 UNK         0.0836 
    111 H111      -77.9583   31.6087  -72.4260 H         1 UNK         0.0836 
    112 H112      -78.2939   26.2935  -74.5853 H         1 UNK         0.3022 
    113 H113      -76.6086   23.1840  -75.0526 H         1 UNK         0.0747 
    114 H114      -77.7974   22.3611  -73.1806 H         1 UNK         0.0793 
    115 H115      -76.7692   23.6177  -72.5123 H         1 UNK         0.0793 
    116 H116      -78.4806   23.9270  -72.7865 H         1 UNK         0.0793 
    117 H117      -79.3845   24.0330  -74.9382 H         1 UNK         0.3047 
    118 H118      -79.7044   24.4689  -78.4681 H         1 UNK         0.0822 
    119 H119      -80.0156   22.0375  -77.9921 H         1 UNK         0.0807 
    120 H120      -81.5570   22.8777  -78.0296 H         1 UNK         0.0807 
    121 H121      -80.8394   22.4186  -76.4863 H         1 UNK         0.0807 
    122 H122      -81.4846   24.8104  -76.2166 H         1 UNK         0.2946 
    123 H123      -80.7849   28.2569  -75.6939 H         1 UNK         0.1144 
    124 H124      -83.1537   28.5968  -76.2974 H         1 UNK         0.0793 
    125 H125      -83.2142   27.0226  -77.0924 H         1 UNK         0.0793 
    126 H126      -82.2103   28.3084  -77.7484 H         1 UNK         0.0793 
    127 H127      -82.8810   26.8081  -74.5909 H         1 UNK         0.2896 
@<TRIPOS>BOND
     1    1    2 1    
     2    1   67 1    
     3    1   68 1    
     4    1   69 1    
     5    2    3 2    
     6    2    4 am   BACKBONE|DICT|INTERRES
     7    4    5 1    
     8    4   70 1    
     9    5    6 1    
    10    5   65 1    
    11    5   71 1    
    12    6    7 1    
    13    6   72 1    
    14    6   73 1    
    15    7    8 1    
    16    8    9 1    
    17    8   74 1    
    18    8   75 1    
    19    9   10 ar   
    20    9   14 ar   
    21   10   11 ar   
    22   10   76 1    
    23   11   12 ar   
    24   11   48 1    
    25   12   13 ar   
    26   12   77 1    
    27   13   14 ar   
    28   13   15 1    
    29   14   78 1    
    30   15   16 1    
    31   15   79 1    
    32   15   80 1    
    33   16   17 1    
    34   17   18 1    
    35   17   81 1    
    36   17   82 1    
    37   18   19 1    
    38   18   22 1    
    39   18   83 1    
    40   19   20 am   BACKBONE|DICT|INTERRES
    41   19   21 2    
    42   20   84 1    
    43   20   85 1    
    44   22   23 am   BACKBONE|DICT|INTERRES
    45   22   86 1    
    46   23   24 2    
    47   23   25 1    
    48   25   26 1    
    49   25   27 1    
    50   25   87 1    
    51   26   88 1    
    52   26   89 1    
    53   26   90 1    
    54   27   28 am   BACKBONE|DICT|INTERRES
    55   27   91 1    
    56   28   29 2    
    57   28   30 1    
    58   30   31 1    
    59   30   32 1    
    60   30   92 1    
    61   31   93 1    
    62   31   94 1    
    63   31   95 1    
    64   32   33 am   BACKBONE|DICT|INTERRES
    65   32   96 1    
    66   33   34 2    
    67   33   35 1    
    68   35   36 1    
    69   35   37 1    
    70   35   97 1    
    71   36   98 1    
    72   36   99 1    
    73   36  100 1    
    74   37   38 am   BACKBONE|DICT|INTERRES
    75   37  101 1    
    76   38   39 2    
    77   38   40 1    
    78   40   41 1    
    79   40   42 1    
    80   40  102 1    
    81   41  103 1    
    82   41  104 1    
    83   41  105 1    
    84   42   43 am   BACKBONE|DICT|INTERRES
    85   42  106 1    
    86   43   44 2    
    87   43   45 1    
    88   45   46 1    
    89   45   49 1    
    90   45  107 1    
    91   46   47 1    
    92   46  108 1    
    93   46  109 1    
    94   47   48 1    
    95   48  110 1    
    96   48  111 1    
    97   49   50 am   BACKBONE|DICT|INTERRES
    98   49  112 1    
    99   50   51 2    
   100   50   52 1    
   101   52   53 1    
   102   52   54 1    
   103   52  113 1    
   104   53  114 1    
   105   53  115 1    
   106   53  116 1    
   107   54   55 am   BACKBONE|DICT|INTERRES
   108   54  117 1    
   109   55   56 2    
   110   55   57 1    
   111   57   58 1    
   112   57   59 1    
   113   57  118 1    
   114   58  119 1    
   115   58  120 1    
   116   58  121 1    
   117   59   60 am   BACKBONE|DICT|INTERRES
   118   59  122 1    
   119   60   61 2    
   120   60   62 1    
   121   62   63 1    
   122   62   64 1    
   123   62  123 1    
   124   63  124 1    
   125   63  125 1    
   126   63  126 1    
   127   64   65 am   BACKBONE|DICT|INTERRES
   128   64  127 1    
   129   65   66 2    
@<TRIPOS>SUBSTRUCTURE
     1 UNK         1 GROUP             0       ****    0 ROOT    
