@<TRIPOS>MOLECULE
3R135
127   129    1
SMALL
USER_CHARGES


@<TRIPOS>ATOM
      1 CA        -85.4996   29.3616  -75.6693 C.3       0 UNK        -0.1998 
      2 C         -84.0259   29.1138  -75.9540 C.2       0 UNK         0.4909 
      3 O         -83.5289   29.5198  -77.0048 O.2       0 UNK        -0.5240 
      4 N         -83.3238   28.4531  -75.0239 N.am      1 UNK        -0.4739 
      5 CA        -81.8957   28.1214  -75.1258 C.3       1 UNK         0.0864 
      6 C6        -81.3208   27.6362  -73.7703 C.3       11 UNK        -0.0881 
      7 S7        -81.4235   28.9109  -72.4750 S.3       11 UNK        -0.2682 
      8 C8        -80.4992   28.1103  -71.1165 C.3       11 UNK         0.0289 
      9 C9        -78.9884   28.3629  -71.0916 C.ar      11 UNK        -0.0687 
     10 C10       -78.1758   27.4803  -70.3729 C.ar      11 UNK        -0.0823 
     11 C11       -76.8074   27.7240  -70.2225 C.ar      11 UNK        -0.0830 
     12 C12       -76.2440   28.8584  -70.8127 C.ar      11 UNK        -0.1021 
     13 C13       -77.0317   29.7468  -71.5581 C.ar      11 UNK        -0.0753 
     14 C14       -78.4016   29.4891  -71.6847 C.ar      11 UNK        -0.0933 
     15 C15       -76.4790   31.0178  -72.2135 C.3       11 UNK         0.0166 
     16 S16       -74.6807   31.3097  -72.0550 S.3       11 UNK        -0.2615 
     17 C17       -74.0341   30.0650  -73.2182 C.3       11 UNK        -0.0865 
     18 CA        -72.4965   30.1134  -73.4088 C.3       10 UNK         0.0862 
     19 C         -71.7258   29.3685  -72.2741 C.2       10 UNK         0.5551 
     20 N         -70.8985   28.3706  -72.5624 N.am      10 UNK        -0.7319 
     21 O         -71.8584   29.7192  -71.1045 O.2       10 UNK        -0.5018 
     22 N         -72.1339   29.6879  -74.7705 N.am      10 UNK        -0.4509 
     23 C         -71.0324   30.0825  -75.4202 C.2       10 UNK         0.4899 
     24 O         -70.2416   30.9156  -74.9734 O.2       10 UNK        -0.4839 
     25 CA        -70.7721   29.4431  -76.8015 C.3       9 UNK         0.0222 
     26 CB        -69.3031   29.5923  -77.2505 C.3       9 UNK        -0.1966 
     27 N         -71.1869   28.0376  -76.9146 N.am      9 UNK        -0.4218 
     28 C         -70.8340   27.0075  -76.1321 C.2       9 UNK         0.5020 
     29 O         -70.1481   27.1314  -75.1156 O.2       9 UNK        -0.5274 
     30 CA        -71.3203   25.6062  -76.5640 C.3       8 UNK         0.0270 
     31 CB        -71.0395   24.5350  -75.4932 C.3       8 UNK        -0.1976 
     32 N         -72.7437   25.5616  -76.9177 N.am      8 UNK        -0.4313 
     33 C         -73.2893   26.0376  -78.0453 C.2       8 UNK         0.5041 
     34 O         -72.6360   26.5864  -78.9340 O.2       8 UNK        -0.5577 
     35 CA        -74.8183   25.9378  -78.1876 C.3       7 UNK         0.0284 
     36 CB        -75.2310   24.5413  -78.6772 C.3       7 UNK        -0.1958 
     37 N         -75.5325   26.2626  -76.9502 N.am      7 UNK        -0.4454 
     38 C         -75.4932   27.4569  -76.3401 C.2       7 UNK         0.5089 
     39 O         -74.8713   28.4327  -76.7624 O.2       7 UNK        -0.5125 
     40 CA        -76.2468   27.5716  -75.0077 C.3       6 UNK         0.0408 
     41 CB        -77.7399   27.8282  -75.2267 C.3       6 UNK        -0.1791 
     42 N         -76.0611   26.3998  -74.1538 N.am      6 UNK        -0.4762 
     43 C         -74.8931   26.0509  -73.5950 C.2       6 UNK         0.5007 
     44 O         -73.8490   26.6892  -73.7297 O.2       6 UNK        -0.5032 
     45 CA        -74.8855   24.7293  -72.7991 C.3       5 UNK         0.0783 
     46 C46       -75.5374   24.8812  -71.4023 C.3       11 UNK        -0.0857 
     47 S47       -74.6074   25.9910  -70.2932 S.3       11 UNK        -0.2512 
     48 C48       -75.9510   26.7990  -69.3638 C.3       11 UNK         0.0225 
     49 N         -75.5173   23.6418  -73.5536 N.am      5 UNK        -0.4615 
     50 C         -75.1048   23.1851  -74.7445 C.2       4 UNK         0.5053 
     51 O         -74.1074   23.5996  -75.3305 O.2       4 UNK        -0.5105 
     52 CA        -75.9755   22.1115  -75.4176 C.3       4 UNK         0.0263 
     53 CB        -75.5227   20.7070  -74.9886 C.3       4 UNK        -0.1981 
     54 N         -77.4091   22.2688  -75.1532 N.am      4 UNK        -0.4224 
     55 C         -78.1439   23.3316  -75.5084 C.2       3 UNK         0.4895 
     56 O         -77.6936   24.3264  -76.0844 O.2       3 UNK        -0.5091 
     57 CA        -79.6160   23.2926  -75.0914 C.3       3 UNK         0.0250 
     58 CB        -79.7837   23.8311  -73.6582 C.3       3 UNK        -0.1996 
     59 N         -80.4084   24.1079  -76.0063 N.am      3 UNK        -0.4254 
     60 C         -81.6690   23.8533  -76.3759 C.2       2 UNK         0.5004 
     61 O         -82.2998   22.8578  -76.0144 O.2       2 UNK        -0.5226 
     62 CA        -82.3580   24.9317  -77.2342 C.3       2 UNK         0.0269 
     63 CB        -83.7213   24.4756  -77.7876 C.3       2 UNK        -0.1926 
     64 N         -82.5529   26.1389  -76.4290 N.am      2 UNK        -0.4687 
     65 C         -81.6091   27.0645  -76.2107 C.2       1 UNK         0.5165 
     66 O         -80.5277   27.0731  -76.7983 O.2       1 UNK        -0.5079 
     67 H67       -85.7066   30.4314  -75.6682 H         1 UNK         0.0900 
     68 H68       -85.8024   28.9571  -74.7037 H         1 UNK         0.0900 
     69 H69       -86.1139   28.8962  -76.4397 H         1 UNK         0.0900 
     70 H70       -83.7764   28.1726  -74.1652 H         1 UNK         0.2959 
     71 H71       -81.3610   29.0273  -75.4212 H         1 UNK         0.1079 
     72 H72       -81.8519   26.7469  -73.4243 H         1 UNK         0.0837 
     73 H73       -80.2768   27.3405  -73.8709 H         1 UNK         0.0837 
     74 H74       -80.6995   27.0377  -71.1375 H         1 UNK         0.0685 
     75 H75       -80.9100   28.4766  -70.1749 H         1 UNK         0.0685 
     76 H76       -78.6204   26.6186  -69.8934 H         1 UNK         0.1434 
     77 H77       -75.1890   29.0411  -70.6685 H         1 UNK         0.1329 
     78 H78       -79.0146   30.1938  -72.2285 H         1 UNK         0.1335 
     79 H79       -76.7413   31.0159  -73.2727 H         1 UNK         0.0680 
     80 H80       -76.9907   31.8751  -71.7741 H         1 UNK         0.0680 
     81 H81       -74.3510   29.0727  -72.8993 H         1 UNK         0.1032 
     82 H82       -74.5268   30.2549  -74.1729 H         1 UNK         0.1032 
     83 H83       -72.1977   31.1600  -73.3227 H         1 UNK         0.0461 
     84 H84       -70.4080   27.9104  -71.8134 H         1 UNK         0.3453 
     85 H85       -70.7602   28.0577  -73.5186 H         1 UNK         0.3453 
     86 H86       -72.7143   28.9734  -75.1882 H         1 UNK         0.2984 
     87 H87       -71.3914   29.9965  -77.5086 H         1 UNK         0.0554 
     88 H88       -69.1454   29.1689  -78.2425 H         1 UNK         0.0847 
     89 H89       -68.6202   29.0945  -76.5610 H         1 UNK         0.0847 
     90 H90       -69.0096   30.6417  -77.2998 H         1 UNK         0.0847 
     91 H91       -71.7599   27.8054  -77.7233 H         1 UNK         0.3141 
     92 H92       -70.7441   25.3389  -77.4521 H         1 UNK         0.0743 
     93 H93       -69.9772   24.4865  -75.2506 H         1 UNK         0.0784 
     94 H94       -71.5791   24.7454  -74.5685 H         1 UNK         0.0784 
     95 H95       -71.3364   23.5436  -75.8358 H         1 UNK         0.0784 
     96 H96       -73.3510   25.0910  -76.2500 H         1 UNK         0.3213 
     97 H97       -75.1276   26.6657  -78.9408 H         1 UNK         0.0855 
     98 H98       -74.9042   23.7609  -77.9909 H         1 UNK         0.0814 
     99 H99       -74.7862   24.3244  -79.6492 H         1 UNK         0.0814 
    100 H100      -76.3126   24.4603  -78.7887 H         1 UNK         0.0814 
    101 H101      -76.1102   25.5331  -76.5433 H         1 UNK         0.3105 
    102 H102      -75.8538   28.4370  -74.4805 H         1 UNK         0.0547 
    103 H103      -78.2472   26.9402  -75.6012 H         1 UNK         0.0837 
    104 H104      -78.2153   28.1309  -74.2954 H         1 UNK         0.0837 
    105 H105      -77.9047   28.6305  -75.9472 H         1 UNK         0.0837 
    106 H106      -76.8542   25.7857  -74.0439 H         1 UNK         0.3020 
    107 H107      -73.8384   24.4505  -72.6584 H         1 UNK         0.1245 
    108 H108      -75.5891   23.9088  -70.9097 H         1 UNK         0.0781 
    109 H109      -76.5692   25.2235  -71.4967 H         1 UNK         0.0781 
    110 H110      -76.5611   26.0313  -68.8851 H         1 UNK         0.0836 
    111 H111      -75.5108   27.3830  -68.5544 H         1 UNK         0.0836 
    112 H112      -76.3441   23.2307  -73.1477 H         1 UNK         0.3022 
    113 H113      -75.8308   22.1985  -76.4957 H         1 UNK         0.0747 
    114 H114      -74.4619   20.5595  -75.1969 H         1 UNK         0.0793 
    115 H115      -76.0666   19.9319  -75.5288 H         1 UNK         0.0793 
    116 H116      -75.6710   20.5410  -73.9208 H         1 UNK         0.0793 
    117 H117      -77.8633   21.5040  -74.6739 H         1 UNK         0.3047 
    118 H118      -79.9568   22.2556  -75.1341 H         1 UNK         0.0822 
    119 H119      -79.2159   23.2356  -72.9424 H         1 UNK         0.0807 
    120 H120      -80.8274   23.8006  -73.3443 H         1 UNK         0.0807 
    121 H121      -79.4409   24.8631  -73.5718 H         1 UNK         0.0807 
    122 H122      -79.9405   24.9322  -76.3684 H         1 UNK         0.2946 
    123 H123      -81.7062   25.1508  -78.0836 H         1 UNK         0.1144 
    124 H124      -84.4298   24.2492  -76.9897 H         1 UNK         0.0793 
    125 H125      -83.6139   23.5756  -78.3945 H         1 UNK         0.0793 
    126 H126      -84.1663   25.2421  -78.4222 H         1 UNK         0.0793 
    127 H127      -83.4077   26.1953  -75.8941 H         1 UNK         0.2896 
@<TRIPOS>BOND
     1    1    2 1    
     2    1   67 1    
     3    1   68 1    
     4    1   69 1    
     5    2    3 2    
     6    2    4 am   BACKBONE|DICT|INTERRES
     7    4    5 1    
     8    4   70 1    
     9    5    6 1    
    10    5   65 1    
    11    5   71 1    
    12    6    7 1    
    13    6   72 1    
    14    6   73 1    
    15    7    8 1    
    16    8    9 1    
    17    8   74 1    
    18    8   75 1    
    19    9   10 ar   
    20    9   14 ar   
    21   10   11 ar   
    22   10   76 1    
    23   11   12 ar   
    24   11   48 1    
    25   12   13 ar   
    26   12   77 1    
    27   13   14 ar   
    28   13   15 1    
    29   14   78 1    
    30   15   16 1    
    31   15   79 1    
    32   15   80 1    
    33   16   17 1    
    34   17   18 1    
    35   17   81 1    
    36   17   82 1    
    37   18   19 1    
    38   18   22 1    
    39   18   83 1    
    40   19   20 am   BACKBONE|DICT|INTERRES
    41   19   21 2    
    42   20   84 1    
    43   20   85 1    
    44   22   23 am   BACKBONE|DICT|INTERRES
    45   22   86 1    
    46   23   24 2    
    47   23   25 1    
    48   25   26 1    
    49   25   27 1    
    50   25   87 1    
    51   26   88 1    
    52   26   89 1    
    53   26   90 1    
    54   27   28 am   BACKBONE|DICT|INTERRES
    55   27   91 1    
    56   28   29 2    
    57   28   30 1    
    58   30   31 1    
    59   30   32 1    
    60   30   92 1    
    61   31   93 1    
    62   31   94 1    
    63   31   95 1    
    64   32   33 am   BACKBONE|DICT|INTERRES
    65   32   96 1    
    66   33   34 2    
    67   33   35 1    
    68   35   36 1    
    69   35   37 1    
    70   35   97 1    
    71   36   98 1    
    72   36   99 1    
    73   36  100 1    
    74   37   38 am   BACKBONE|DICT|INTERRES
    75   37  101 1    
    76   38   39 2    
    77   38   40 1    
    78   40   41 1    
    79   40   42 1    
    80   40  102 1    
    81   41  103 1    
    82   41  104 1    
    83   41  105 1    
    84   42   43 am   BACKBONE|DICT|INTERRES
    85   42  106 1    
    86   43   44 2    
    87   43   45 1    
    88   45   46 1    
    89   45   49 1    
    90   45  107 1    
    91   46   47 1    
    92   46  108 1    
    93   46  109 1    
    94   47   48 1    
    95   48  110 1    
    96   48  111 1    
    97   49   50 am   BACKBONE|DICT|INTERRES
    98   49  112 1    
    99   50   51 2    
   100   50   52 1    
   101   52   53 1    
   102   52   54 1    
   103   52  113 1    
   104   53  114 1    
   105   53  115 1    
   106   53  116 1    
   107   54   55 am   BACKBONE|DICT|INTERRES
   108   54  117 1    
   109   55   56 2    
   110   55   57 1    
   111   57   58 1    
   112   57   59 1    
   113   57  118 1    
   114   58  119 1    
   115   58  120 1    
   116   58  121 1    
   117   59   60 am   BACKBONE|DICT|INTERRES
   118   59  122 1    
   119   60   61 2    
   120   60   62 1    
   121   62   63 1    
   122   62   64 1    
   123   62  123 1    
   124   63  124 1    
   125   63  125 1    
   126   63  126 1    
   127   64   65 am   BACKBONE|DICT|INTERRES
   128   64  127 1    
   129   65   66 2    
@<TRIPOS>SUBSTRUCTURE
     1 UNK         1 GROUP             0       ****    0 ROOT    
