@<TRIPOS>MOLECULE
3R135
127   129    1
SMALL
USER_CHARGES


@<TRIPOS>ATOM
      1 CA        -80.6963   29.7850  -76.4311 C.3       0 UNK        -0.1998 
      2 C         -80.4518   28.8568  -75.2520 C.2       0 UNK         0.4909 
      3 O         -79.4050   28.2159  -75.1854 O.2       0 UNK        -0.5240 
      4 N         -81.4123   28.7660  -74.3240 N.am      1 UNK        -0.4739 
      5 CA        -81.3363   27.9355  -73.1151 C.3       1 UNK         0.0864 
      6 C6        -82.0905   28.5725  -71.9153 C.3       11 UNK        -0.0881 
      7 S7        -81.6028   30.3032  -71.5776 S.3       11 UNK        -0.2682 
      8 C8        -80.4284   30.1390  -70.1931 C.3       11 UNK         0.0289 
      9 C9        -79.0810   29.5973  -70.6487 C.ar      11 UNK        -0.0687 
     10 C10       -78.7032   28.2885  -70.3334 C.ar      11 UNK        -0.0823 
     11 C11       -77.4806   27.7807  -70.7812 C.ar      11 UNK        -0.0830 
     12 C12       -76.6237   28.5959  -71.5257 C.ar      11 UNK        -0.1021 
     13 C13       -76.9923   29.9014  -71.8542 C.ar      11 UNK        -0.0753 
     14 C14       -78.2176   30.4018  -71.4018 C.ar      11 UNK        -0.0933 
     15 C15       -76.1036   30.7382  -72.7632 C.3       11 UNK         0.0166 
     16 S16       -74.9330   31.7825  -71.8399 S.3       11 UNK        -0.2615 
     17 C17       -73.6385   30.6015  -71.3180 C.3       11 UNK        -0.0865 
     18 CA        -72.4237   30.5758  -72.2871 C.3       10 UNK         0.0862 
     19 C         -71.1726   29.9017  -71.6452 C.2       10 UNK         0.5551 
     20 N         -70.4590   29.0118  -72.3258 N.am      10 UNK        -0.7319 
     21 O         -70.8294   30.2027  -70.5046 O.2       10 UNK        -0.5018 
     22 N         -72.7903   30.0060  -73.5947 N.am      10 UNK        -0.4509 
     23 C         -72.3115   30.4160  -74.7745 C.2       10 UNK         0.4899 
     24 O         -71.5564   31.3799  -74.9135 O.2       10 UNK        -0.4839 
     25 CA        -72.7446   29.5846  -75.9984 C.3       9 UNK         0.0222 
     26 CB        -71.9794   29.9616  -77.2841 C.3       9 UNK        -0.1966 
     27 N         -72.6714   28.1358  -75.7678 N.am      9 UNK        -0.4218 
     28 C         -71.5960   27.4153  -75.4134 C.2       9 UNK         0.5020 
     29 O         -70.4969   27.9023  -75.1459 O.2       9 UNK        -0.5274 
     30 CA        -71.7759   25.8889  -75.3274 C.3       8 UNK         0.0270 
     31 CB        -72.2374   25.4810  -73.9186 C.3       8 UNK        -0.1976 
     32 N         -72.7075   25.3579  -76.3283 N.am      8 UNK        -0.4313 
     33 C         -72.4777   25.3371  -77.6502 C.2       8 UNK         0.5041 
     34 O         -71.4184   25.6955  -78.1668 O.2       8 UNK        -0.5577 
     35 CA        -73.6263   24.8535  -78.5546 C.3       7 UNK         0.0284 
     36 CB        -73.6673   23.3185  -78.6247 C.3       7 UNK        -0.1958 
     37 N         -74.9301   25.3696  -78.1304 N.am      7 UNK        -0.4454 
     38 C         -75.2882   26.6609  -78.1952 C.2       7 UNK         0.5089 
     39 O         -74.5968   27.5407  -78.7081 O.2       7 UNK        -0.5125 
     40 CA        -76.6270   27.0467  -77.5449 C.3       6 UNK         0.0408 
     41 CB        -77.7894   26.8656  -78.5325 C.3       6 UNK        -0.1791 
     42 N         -76.9004   26.2913  -76.3219 N.am      6 UNK        -0.4762 
     43 C         -76.1764   26.3704  -75.1967 C.2       6 UNK         0.5007 
     44 O         -75.2092   27.1192  -75.0576 O.2       6 UNK        -0.5032 
     45 CA        -76.5643   25.4209  -74.0472 C.3       5 UNK         0.0783 
     46 C46       -77.7929   25.9613  -73.2927 C.3       11 UNK        -0.0857 
     47 S47       -78.0297   25.1988  -71.6510 S.3       11 UNK        -0.2512 
     48 C48       -77.1143   26.3242  -70.5423 C.3       11 UNK         0.0225 
     49 N         -76.7984   24.0585  -74.5273 N.am      5 UNK        -0.4615 
     50 C         -75.8797   23.2672  -75.0905 C.2       4 UNK         0.5053 
     51 O         -74.6975   23.5788  -75.2245 O.2       4 UNK        -0.5105 
     52 CA        -76.3815   21.9172  -75.6284 C.3       4 UNK         0.0263 
     53 CB        -76.3929   20.8621  -74.5112 C.3       4 UNK        -0.1981 
     54 N         -77.7165   22.0135  -76.2296 N.am      4 UNK        -0.4224 
     55 C         -77.9853   22.6762  -77.3646 C.2       3 UNK         0.4895 
     56 O         -77.1299   23.2478  -78.0419 O.2       3 UNK        -0.5091 
     57 CA        -79.4651   22.7482  -77.7877 C.3       3 UNK         0.0250 
     58 CB        -79.9149   21.4261  -78.4305 C.3       3 UNK        -0.1996 
     59 N         -80.3732   23.1026  -76.6868 N.am      3 UNK        -0.4254 
     60 C         -80.3147   24.2614  -76.0161 C.2       2 UNK         0.5004 
     61 O         -79.4823   25.1358  -76.2631 O.2       2 UNK        -0.5226 
     62 CA        -81.3085   24.4729  -74.8614 C.3       2 UNK         0.0269 
     63 CB        -81.0306   23.4646  -73.7248 C.3       2 UNK        -0.1926 
     64 N         -81.1481   25.8507  -74.3899 N.am      2 UNK        -0.4687 
     65 C         -81.8125   26.4953  -73.4249 C.2       1 UNK         0.5165 
     66 O         -82.7691   26.0107  -72.8175 O.2       1 UNK        -0.5079 
     67 H67       -81.6636   30.2826  -76.3650 H         1 UNK         0.0900 
     68 H68       -79.9217   30.5503  -76.4701 H         1 UNK         0.0900 
     69 H69       -80.6656   29.2210  -77.3629 H         1 UNK         0.0900 
     70 H70       -82.2611   29.3031  -74.4293 H         1 UNK         0.2959 
     71 H71       -80.2886   27.8523  -72.8161 H         1 UNK         0.1079 
     72 H72       -81.9414   27.9756  -71.0136 H         1 UNK         0.0837 
     73 H73       -83.1662   28.5709  -72.1012 H         1 UNK         0.0837 
     74 H74       -80.2805   31.1216  -69.7429 H         1 UNK         0.0685 
     75 H75       -80.8636   29.5110  -69.4142 H         1 UNK         0.0685 
     76 H76       -79.3731   27.6519  -69.7716 H         1 UNK         0.1434 
     77 H77       -75.6972   28.1889  -71.9058 H         1 UNK         0.1329 
     78 H78       -78.5157   31.4083  -71.6621 H         1 UNK         0.1335 
     79 H79       -75.5636   30.0974  -73.4612 H         1 UNK         0.0680 
     80 H80       -76.7278   31.3859  -73.3808 H         1 UNK         0.0680 
     81 H81       -73.3253   30.9199  -70.3219 H         1 UNK         0.1032 
     82 H82       -74.0518   29.6031  -71.1850 H         1 UNK         0.1032 
     83 H83       -72.1234   31.6143  -72.4389 H         1 UNK         0.0461 
     84 H84       -70.6733   28.7864  -73.2896 H         1 UNK         0.3453 
     85 H85       -69.6519   28.5985  -71.8869 H         1 UNK         0.3453 
     86 H86       -73.3761   29.1846  -73.5766 H         1 UNK         0.2984 
     87 H87       -73.7989   29.8108  -76.1641 H         1 UNK         0.0554 
     88 H88       -72.1198   31.0147  -77.5302 H         1 UNK         0.0847 
     89 H89       -72.3315   29.3802  -78.1367 H         1 UNK         0.0847 
     90 H90       -70.9073   29.7899  -77.1814 H         1 UNK         0.0847 
     91 H91       -73.5585   27.6421  -75.8363 H         1 UNK         0.3141 
     92 H92       -70.8000   25.4335  -75.5085 H         1 UNK         0.0743 
     93 H93       -73.2160   25.8949  -73.6760 H         1 UNK         0.0784 
     94 H94       -72.3000   24.3969  -73.8209 H         1 UNK         0.0784 
     95 H95       -71.5370   25.8350  -73.1608 H         1 UNK         0.0784 
     96 H96       -73.5730   24.9533  -75.9795 H         1 UNK         0.3213 
     97 H97       -73.4332   25.2299  -79.5617 H         1 UNK         0.0855 
     98 H98       -73.8465   22.8702  -77.6479 H         1 UNK         0.0814 
     99 H99       -72.7213   22.9217  -78.9953 H         1 UNK         0.0814 
    100 H100      -74.4510   22.9731  -79.2993 H         1 UNK         0.0814 
    101 H101      -75.5949   24.7022  -77.7540 H         1 UNK         0.3105 
    102 H102      -76.5740   28.1034  -77.2745 H         1 UNK         0.0547 
    103 H103      -77.6199   27.4364  -79.4463 H         1 UNK         0.0837 
    104 H104      -77.9191   25.8206  -78.8160 H         1 UNK         0.0837 
    105 H105      -78.7287   27.2126  -78.1007 H         1 UNK         0.0837 
    106 H106      -77.7390   25.7127  -76.3265 H         1 UNK         0.3020 
    107 H107      -75.7155   25.3942  -73.3607 H         1 UNK         0.1245 
    108 H108      -77.7822   27.0464  -73.2236 H         1 UNK         0.0781 
    109 H109      -78.6826   25.7502  -73.8731 H         1 UNK         0.0781 
    110 H110      -76.0435   26.1684  -70.6828 H         1 UNK         0.0836 
    111 H111      -77.3274   26.0564  -69.5065 H         1 UNK         0.0836 
    112 H112      -77.7477   23.7252  -74.4709 H         1 UNK         0.3022 
    113 H113      -75.6840   21.5886  -76.4018 H         1 UNK         0.0747 
    114 H114      -76.6744   19.8813  -74.8949 H         1 UNK         0.0793 
    115 H115      -75.4037   20.7607  -74.0624 H         1 UNK         0.0793 
    116 H116      -77.0878   21.1232  -73.7119 H         1 UNK         0.0793 
    117 H117      -78.4773   21.5663  -75.7393 H         1 UNK         0.3047 
    118 H118      -79.5450   23.5333  -78.5430 H         1 UNK         0.0822 
    119 H119      -80.9242   21.5056  -78.8349 H         1 UNK         0.0807 
    120 H120      -79.9030   20.6009  -77.7176 H         1 UNK         0.0807 
    121 H121      -79.2583   21.1519  -79.2576 H         1 UNK         0.0807 
    122 H122      -81.0793   22.4239  -76.4393 H         1 UNK         0.2946 
    123 H123      -82.3239   24.3455  -75.2416 H         1 UNK         0.1144 
    124 H124      -81.7333   23.5797  -72.9001 H         1 UNK         0.0793 
    125 H125      -80.0249   23.5792  -73.3201 H         1 UNK         0.0793 
    126 H126      -81.1268   22.4355  -74.0719 H         1 UNK         0.0793 
    127 H127      -80.4096   26.3545  -74.8781 H         1 UNK         0.2896 
@<TRIPOS>BOND
     1    1    2 1    
     2    1   67 1    
     3    1   68 1    
     4    1   69 1    
     5    2    3 2    
     6    2    4 am   BACKBONE|DICT|INTERRES
     7    4    5 1    
     8    4   70 1    
     9    5    6 1    
    10    5   65 1    
    11    5   71 1    
    12    6    7 1    
    13    6   72 1    
    14    6   73 1    
    15    7    8 1    
    16    8    9 1    
    17    8   74 1    
    18    8   75 1    
    19    9   10 ar   
    20    9   14 ar   
    21   10   11 ar   
    22   10   76 1    
    23   11   12 ar   
    24   11   48 1    
    25   12   13 ar   
    26   12   77 1    
    27   13   14 ar   
    28   13   15 1    
    29   14   78 1    
    30   15   16 1    
    31   15   79 1    
    32   15   80 1    
    33   16   17 1    
    34   17   18 1    
    35   17   81 1    
    36   17   82 1    
    37   18   19 1    
    38   18   22 1    
    39   18   83 1    
    40   19   20 am   BACKBONE|DICT|INTERRES
    41   19   21 2    
    42   20   84 1    
    43   20   85 1    
    44   22   23 am   BACKBONE|DICT|INTERRES
    45   22   86 1    
    46   23   24 2    
    47   23   25 1    
    48   25   26 1    
    49   25   27 1    
    50   25   87 1    
    51   26   88 1    
    52   26   89 1    
    53   26   90 1    
    54   27   28 am   BACKBONE|DICT|INTERRES
    55   27   91 1    
    56   28   29 2    
    57   28   30 1    
    58   30   31 1    
    59   30   32 1    
    60   30   92 1    
    61   31   93 1    
    62   31   94 1    
    63   31   95 1    
    64   32   33 am   BACKBONE|DICT|INTERRES
    65   32   96 1    
    66   33   34 2    
    67   33   35 1    
    68   35   36 1    
    69   35   37 1    
    70   35   97 1    
    71   36   98 1    
    72   36   99 1    
    73   36  100 1    
    74   37   38 am   BACKBONE|DICT|INTERRES
    75   37  101 1    
    76   38   39 2    
    77   38   40 1    
    78   40   41 1    
    79   40   42 1    
    80   40  102 1    
    81   41  103 1    
    82   41  104 1    
    83   41  105 1    
    84   42   43 am   BACKBONE|DICT|INTERRES
    85   42  106 1    
    86   43   44 2    
    87   43   45 1    
    88   45   46 1    
    89   45   49 1    
    90   45  107 1    
    91   46   47 1    
    92   46  108 1    
    93   46  109 1    
    94   47   48 1    
    95   48  110 1    
    96   48  111 1    
    97   49   50 am   BACKBONE|DICT|INTERRES
    98   49  112 1    
    99   50   51 2    
   100   50   52 1    
   101   52   53 1    
   102   52   54 1    
   103   52  113 1    
   104   53  114 1    
   105   53  115 1    
   106   53  116 1    
   107   54   55 am   BACKBONE|DICT|INTERRES
   108   54  117 1    
   109   55   56 2    
   110   55   57 1    
   111   57   58 1    
   112   57   59 1    
   113   57  118 1    
   114   58  119 1    
   115   58  120 1    
   116   58  121 1    
   117   59   60 am   BACKBONE|DICT|INTERRES
   118   59  122 1    
   119   60   61 2    
   120   60   62 1    
   121   62   63 1    
   122   62   64 1    
   123   62  123 1    
   124   63  124 1    
   125   63  125 1    
   126   63  126 1    
   127   64   65 am   BACKBONE|DICT|INTERRES
   128   64  127 1    
   129   65   66 2    
@<TRIPOS>SUBSTRUCTURE
     1 UNK         1 GROUP             0       ****    0 ROOT    
