@<TRIPOS>MOLECULE
3R135
127   129    1
SMALL
USER_CHARGES


@<TRIPOS>ATOM
      1 CA        -85.1007   27.8148  -70.4074 C.3       0 UNK        -0.1998 
      2 C         -84.5172   28.3585  -71.7029 C.2       0 UNK         0.4909 
      3 O         -85.2691   28.7703  -72.5867 O.2       0 UNK        -0.5240 
      4 N         -83.1820   28.3659  -71.8203 N.am      1 UNK        -0.4739 
      5 CA        -82.4457   28.8261  -73.0058 C.3       1 UNK         0.0864 
      6 C6        -80.9462   29.0383  -72.6747 C.3       11 UNK        -0.0881 
      7 S7        -80.1381   30.2589  -73.7644 S.3       11 UNK        -0.2682 
      8 C8        -78.6973   29.3346  -74.3934 C.3       11 UNK         0.0289 
      9 C9        -77.7613   28.8818  -73.2775 C.ar      11 UNK        -0.0687 
     10 C10       -77.5680   27.5211  -73.0207 C.ar      11 UNK        -0.0823 
     11 C11       -76.7534   27.1047  -71.9632 C.ar      11 UNK        -0.0830 
     12 C12       -76.1130   28.0647  -71.1715 C.ar      11 UNK        -0.1021 
     13 C13       -76.2897   29.4311  -71.4186 C.ar      11 UNK        -0.0753 
     14 C14       -77.1123   29.8281  -72.4799 C.ar      11 UNK        -0.0933 
     15 C15       -75.6790   30.4550  -70.4616 C.3       11 UNK         0.0166 
     16 S16       -75.1744   32.0273  -71.2466 S.3       11 UNK        -0.2615 
     17 C17       -73.3788   31.8105  -71.4867 C.3       11 UNK        -0.0865 
     18 CA        -72.9889   31.5358  -72.9611 C.3       10 UNK         0.0862 
     19 C         -71.4470   31.6693  -73.1404 C.2       10 UNK         0.5551 
     20 N         -70.6989   30.5911  -73.3413 N.am      10 UNK        -0.7319 
     21 O         -70.9216   32.7789  -73.0934 O.2       10 UNK        -0.5018 
     22 N         -73.5532   30.2633  -73.4333 N.am      10 UNK        -0.4509 
     23 C         -73.5930   29.8659  -74.7092 C.2       10 UNK         0.4899 
     24 O         -73.2653   30.5657  -75.6692 O.2       10 UNK        -0.4839 
     25 CA        -74.0414   28.4140  -74.9406 C.3       9 UNK         0.0222 
     26 CB        -75.1950   28.3409  -75.9538 C.3       9 UNK        -0.1966 
     27 N         -72.9320   27.5664  -75.3930 N.am      9 UNK        -0.4218 
     28 C         -71.7938   27.3547  -74.7092 C.2       9 UNK         0.5020 
     29 O         -71.5759   27.8370  -73.5963 O.2       9 UNK        -0.5274 
     30 CA        -70.7150   26.4472  -75.3304 C.3       8 UNK         0.0270 
     31 CB        -70.3609   25.2847  -74.3854 C.3       8 UNK        -0.1976 
     32 N         -71.0939   25.9057  -76.6372 N.am      8 UNK        -0.4313 
     33 C         -70.8472   26.5116  -77.8080 C.2       8 UNK         0.5041 
     34 O         -70.2499   27.5842  -77.9050 O.2       8 UNK        -0.5577 
     35 CA        -71.3461   25.8232  -79.0943 C.3       7 UNK         0.0284 
     36 CB        -70.1812   25.1244  -79.8147 C.3       7 UNK        -0.1958 
     37 N         -72.4270   24.8556  -78.8838 N.am      7 UNK        -0.4454 
     38 C         -73.6497   25.1568  -78.4277 C.2       7 UNK         0.5089 
     39 O         -74.0002   26.3006  -78.1363 O.2       7 UNK        -0.5125 
     40 CA        -74.6362   23.9930  -78.2077 C.3       6 UNK         0.0408 
     41 CB        -74.1314   22.6208  -78.7092 C.3       6 UNK        -0.1791 
     42 N         -75.0498   23.8988  -76.8038 N.am      6 UNK        -0.4762 
     43 C         -74.2479   23.7770  -75.7312 C.2       6 UNK         0.5007 
     44 O         -73.0199   23.7156  -75.8128 O.2       6 UNK        -0.5032 
     45 CA        -74.9022   23.7331  -74.3299 C.3       5 UNK         0.0783 
     46 C46       -74.6381   25.0591  -73.5763 C.3       11 UNK        -0.0857 
     47 S47       -74.9591   24.9499  -71.7867 S.3       11 UNK        -0.2512 
     48 C48       -76.6448   25.6222  -71.6205 C.3       11 UNK         0.0225 
     49 N         -76.3372   23.4463  -74.3891 N.am      5 UNK        -0.4615 
     50 C         -76.8923   22.2654  -74.6870 C.2       4 UNK         0.5053 
     51 O         -76.2514   21.2271  -74.8469 O.2       4 UNK        -0.5105 
     52 CA        -78.4246   22.2518  -74.8618 C.3       4 UNK         0.0263 
     53 CB        -79.1035   21.7025  -73.5967 C.3       4 UNK        -0.1981 
     54 N         -79.0014   23.5658  -75.1827 N.am      4 UNK        -0.4224 
     55 C         -78.7436   24.2780  -76.2914 C.2       3 UNK         0.4895 
     56 O         -77.9814   23.8944  -77.1787 O.2       3 UNK        -0.5091 
     57 CA        -79.3810   25.6777  -76.3876 C.3       3 UNK         0.0250 
     58 CB        -79.5455   26.1646  -77.8431 C.3       3 UNK        -0.1996 
     59 N         -80.6334   25.8130  -75.6295 N.am      3 UNK        -0.4254 
     60 C         -81.8030   25.1999  -75.8704 C.2       2 UNK         0.5004 
     61 O         -81.9830   24.4018  -76.7905 O.2       2 UNK        -0.5226 
     62 CA        -82.9712   25.5012  -74.9096 C.3       2 UNK         0.0269 
     63 CB        -83.3793   24.2305  -74.1435 C.3       2 UNK        -0.1926 
     64 N         -82.7101   26.5681  -73.9346 N.am      2 UNK        -0.4687 
     65 C         -82.6416   27.8797  -74.2115 C.2       1 UNK         0.5165 
     66 O         -82.7414   28.3410  -75.3485 O.2       1 UNK        -0.5079 
     67 H67       -85.7434   26.9598  -70.6155 H         1 UNK         0.0900 
     68 H68       -85.7005   28.5804  -69.9159 H         1 UNK         0.0900 
     69 H69       -84.3247   27.4945  -69.7124 H         1 UNK         0.0900 
     70 H70       -82.6187   28.0272  -71.0528 H         1 UNK         0.2959 
     71 H71       -82.8748   29.7912  -73.2865 H         1 UNK         0.1079 
     72 H72       -80.8405   29.4304  -71.6617 H         1 UNK         0.0837 
     73 H73       -80.4031   28.0921  -72.6756 H         1 UNK         0.0837 
     74 H74       -79.0513   28.4887  -74.9820 H         1 UNK         0.0685 
     75 H75       -78.1474   29.9782  -75.0810 H         1 UNK         0.0685 
     76 H76       -78.0832   26.7853  -73.6196 H         1 UNK         0.1434 
     77 H77       -75.5072   27.7425  -70.3353 H         1 UNK         0.1329 
     78 H78       -77.2876   30.8784  -72.6664 H         1 UNK         0.1335 
     79 H79       -76.4316   30.6873  -69.7071 H         1 UNK         0.0680 
     80 H80       -74.8372   30.0224  -69.9195 H         1 UNK         0.0680 
     81 H81       -72.9080   32.7320  -71.1376 H         1 UNK         0.1032 
     82 H82       -72.9970   31.0229  -70.8351 H         1 UNK         0.1032 
     83 H83       -73.4304   32.3250  -73.5730 H         1 UNK         0.0461 
     84 H84       -71.1158   29.6646  -73.3748 H         1 UNK         0.3453 
     85 H85       -69.7037   30.6970  -73.4539 H         1 UNK         0.3453 
     86 H86       -73.8377   29.6138  -72.7151 H         1 UNK         0.2984 
     87 H87       -74.4029   28.0146  -73.9914 H         1 UNK         0.0554 
     88 H88       -75.5905   27.3288  -76.0392 H         1 UNK         0.0847 
     89 H89       -76.0177   28.9882  -75.6532 H         1 UNK         0.0847 
     90 H90       -74.8790   28.6612  -76.9474 H         1 UNK         0.0847 
     91 H91       -73.0284   27.1569  -76.3146 H         1 UNK         0.3141 
     92 H92       -69.8178   27.0596  -75.4429 H         1 UNK         0.0743 
     93 H93       -69.9757   25.6573  -73.4353 H         1 UNK         0.0784 
     94 H94       -71.2267   24.6629  -74.1593 H         1 UNK         0.0784 
     95 H95       -69.5905   24.6441  -74.8148 H         1 UNK         0.0784 
     96 H96       -71.6237   25.0391  -76.6271 H         1 UNK         0.3213 
     97 H97       -71.7304   26.6091  -79.7484 H         1 UNK         0.0855 
     98 H98       -69.3705   25.8259  -80.0172 H         1 UNK         0.0814 
     99 H99       -70.4955   24.7122  -80.7737 H         1 UNK         0.0814 
    100 H100      -69.7660   24.3118  -79.2172 H         1 UNK         0.0814 
    101 H101      -72.2127   23.8870  -79.0717 H         1 UNK         0.3105 
    102 H102      -75.5328   24.2432  -78.7766 H         1 UNK         0.0547 
    103 H103      -73.8905   22.6506  -79.7726 H         1 UNK         0.0837 
    104 H104      -73.2454   22.2811  -78.1716 H         1 UNK         0.0837 
    105 H105      -74.8996   21.8578  -78.5824 H         1 UNK         0.0837 
    106 H106      -76.0540   23.9388  -76.6609 H         1 UNK         0.3020 
    107 H107      -74.4125   22.9197  -73.7892 H         1 UNK         0.1245 
    108 H108      -73.5915   25.3493  -73.6691 H         1 UNK         0.0781 
    109 H109      -75.2201   25.8711  -74.0112 H         1 UNK         0.0781 
    110 H110      -76.9656   25.4841  -70.5870 H         1 UNK         0.0836 
    111 H111      -77.3310   25.0266  -72.2227 H         1 UNK         0.0836 
    112 H112      -76.9514   24.2339  -74.2638 H         1 UNK         0.3022 
    113 H113      -78.6491   21.5800  -75.6931 H         1 UNK         0.0747 
    114 H114      -80.1809   21.6061  -73.7334 H         1 UNK         0.0793 
    115 H115      -78.7215   20.7111  -73.3481 H         1 UNK         0.0793 
    116 H116      -78.9289   22.3444  -72.7322 H         1 UNK         0.0793 
    117 H117      -79.6509   23.9487  -74.5119 H         1 UNK         0.3047 
    118 H118      -78.6649   26.3484  -75.9138 H         1 UNK         0.0822 
    119 H119      -79.9862   27.1610  -77.8805 H         1 UNK         0.0807 
    120 H120      -80.1777   25.4953  -78.4271 H         1 UNK         0.0807 
    121 H121      -78.5807   26.2200  -78.3491 H         1 UNK         0.0807 
    122 H122      -80.6134   26.4498  -74.8469 H         1 UNK         0.2946 
    123 H123      -83.8140   25.8116  -75.5316 H         1 UNK         0.1144 
    124 H124      -84.2580   24.4064  -73.5225 H         1 UNK         0.0793 
    125 H125      -82.5768   23.8716  -73.4979 H         1 UNK         0.0793 
    126 H126      -83.6310   23.4208  -74.8301 H         1 UNK         0.0793 
    127 H127      -82.6382   26.2862  -72.9673 H         1 UNK         0.2896 
@<TRIPOS>BOND
     1    1    2 1    
     2    1   67 1    
     3    1   68 1    
     4    1   69 1    
     5    2    3 2    
     6    2    4 am   BACKBONE|DICT|INTERRES
     7    4    5 1    
     8    4   70 1    
     9    5    6 1    
    10    5   65 1    
    11    5   71 1    
    12    6    7 1    
    13    6   72 1    
    14    6   73 1    
    15    7    8 1    
    16    8    9 1    
    17    8   74 1    
    18    8   75 1    
    19    9   10 ar   
    20    9   14 ar   
    21   10   11 ar   
    22   10   76 1    
    23   11   12 ar   
    24   11   48 1    
    25   12   13 ar   
    26   12   77 1    
    27   13   14 ar   
    28   13   15 1    
    29   14   78 1    
    30   15   16 1    
    31   15   79 1    
    32   15   80 1    
    33   16   17 1    
    34   17   18 1    
    35   17   81 1    
    36   17   82 1    
    37   18   19 1    
    38   18   22 1    
    39   18   83 1    
    40   19   20 am   BACKBONE|DICT|INTERRES
    41   19   21 2    
    42   20   84 1    
    43   20   85 1    
    44   22   23 am   BACKBONE|DICT|INTERRES
    45   22   86 1    
    46   23   24 2    
    47   23   25 1    
    48   25   26 1    
    49   25   27 1    
    50   25   87 1    
    51   26   88 1    
    52   26   89 1    
    53   26   90 1    
    54   27   28 am   BACKBONE|DICT|INTERRES
    55   27   91 1    
    56   28   29 2    
    57   28   30 1    
    58   30   31 1    
    59   30   32 1    
    60   30   92 1    
    61   31   93 1    
    62   31   94 1    
    63   31   95 1    
    64   32   33 am   BACKBONE|DICT|INTERRES
    65   32   96 1    
    66   33   34 2    
    67   33   35 1    
    68   35   36 1    
    69   35   37 1    
    70   35   97 1    
    71   36   98 1    
    72   36   99 1    
    73   36  100 1    
    74   37   38 am   BACKBONE|DICT|INTERRES
    75   37  101 1    
    76   38   39 2    
    77   38   40 1    
    78   40   41 1    
    79   40   42 1    
    80   40  102 1    
    81   41  103 1    
    82   41  104 1    
    83   41  105 1    
    84   42   43 am   BACKBONE|DICT|INTERRES
    85   42  106 1    
    86   43   44 2    
    87   43   45 1    
    88   45   46 1    
    89   45   49 1    
    90   45  107 1    
    91   46   47 1    
    92   46  108 1    
    93   46  109 1    
    94   47   48 1    
    95   48  110 1    
    96   48  111 1    
    97   49   50 am   BACKBONE|DICT|INTERRES
    98   49  112 1    
    99   50   51 2    
   100   50   52 1    
   101   52   53 1    
   102   52   54 1    
   103   52  113 1    
   104   53  114 1    
   105   53  115 1    
   106   53  116 1    
   107   54   55 am   BACKBONE|DICT|INTERRES
   108   54  117 1    
   109   55   56 2    
   110   55   57 1    
   111   57   58 1    
   112   57   59 1    
   113   57  118 1    
   114   58  119 1    
   115   58  120 1    
   116   58  121 1    
   117   59   60 am   BACKBONE|DICT|INTERRES
   118   59  122 1    
   119   60   61 2    
   120   60   62 1    
   121   62   63 1    
   122   62   64 1    
   123   62  123 1    
   124   63  124 1    
   125   63  125 1    
   126   63  126 1    
   127   64   65 am   BACKBONE|DICT|INTERRES
   128   64  127 1    
   129   65   66 2    
@<TRIPOS>SUBSTRUCTURE
     1 UNK         1 GROUP             0       ****    0 ROOT    
