@<TRIPOS>MOLECULE
3R135
127   129    1
SMALL
USER_CHARGES


@<TRIPOS>ATOM
      1 CA        -77.4098   24.6118  -77.5898 C.3       0 UNK        -0.1998 
      2 C         -77.7326   23.6234  -76.4826 C.2       0 UNK         0.4909 
      3 O         -77.3884   22.4464  -76.5891 O.2       0 UNK        -0.5240 
      4 N         -78.4097   24.0813  -75.4240 N.am      1 UNK        -0.4739 
      5 CA        -78.7515   23.3078  -74.2205 C.3       1 UNK         0.0864 
      6 C6        -78.8824   24.2274  -72.9772 C.3       11 UNK        -0.0881 
      7 S7        -77.4379   25.3125  -72.7497 S.3       11 UNK        -0.2682 
      8 C8        -77.3414   25.4532  -70.9442 C.3       11 UNK         0.0289 
      9 C9        -76.8224   26.8348  -70.6048 C.ar      11 UNK        -0.0687 
     10 C10       -77.7222   27.8900  -70.4543 C.ar      11 UNK        -0.0823 
     11 C11       -77.2602   29.1973  -70.2895 C.ar      11 UNK        -0.0830 
     12 C12       -75.8826   29.4374  -70.2226 C.ar      11 UNK        -0.1021 
     13 C13       -74.9739   28.3801  -70.3435 C.ar      11 UNK        -0.0753 
     14 C14       -75.4499   27.0799  -70.5331 C.ar      11 UNK        -0.0933 
     15 C15       -73.4750   28.6275  -70.2897 C.3       11 UNK         0.0166 
     16 S16       -72.7419   28.6307  -71.9554 S.3       11 UNK        -0.2615 
     17 C17       -72.9140   30.3844  -72.4362 C.3       11 UNK        -0.0865 
     18 CA        -73.1361   30.5723  -73.9587 C.3       10 UNK         0.0862 
     19 C         -73.3535   32.0702  -74.3017 C.2       10 UNK         0.5551 
     20 N         -74.5535   32.4424  -74.7230 N.am      10 UNK        -0.7319 
     21 O         -72.4537   32.8936  -74.1474 O.2       10 UNK        -0.5018 
     22 N         -72.0625   29.9403  -74.7384 N.am      10 UNK        -0.4509 
     23 C         -71.9424   29.8978  -76.0713 C.2       10 UNK         0.4899 
     24 O         -72.6886   30.4822  -76.8556 O.2       10 UNK        -0.4839 
     25 CA        -70.8429   28.9837  -76.6433 C.3       9 UNK         0.0222 
     26 CB        -69.4861   29.7107  -76.7274 C.3       9 UNK        -0.1966 
     27 N         -70.7474   27.6838  -75.9581 N.am      9 UNK        -0.4218 
     28 C         -70.2943   27.4161  -74.7237 C.2       9 UNK         0.5020 
     29 O         -69.8066   28.2616  -73.9724 O.2       9 UNK        -0.5274 
     30 CA        -70.5151   25.9807  -74.2294 C.3       8 UNK         0.0270 
     31 CB        -70.0448   25.7556  -72.7793 C.3       8 UNK        -0.1976 
     32 N         -71.9416   25.6741  -74.3329 N.am      8 UNK        -0.4313 
     33 C         -72.4565   24.5763  -74.8967 C.2       8 UNK         0.5041 
     34 O         -71.7768   23.6500  -75.3409 O.2       8 UNK        -0.5577 
     35 CA        -73.9914   24.4970  -74.9999 C.3       7 UNK         0.0284 
     36 CB        -74.5607   23.7336  -73.7950 C.3       7 UNK        -0.1958 
     37 N         -74.6665   25.7985  -75.1512 N.am      7 UNK        -0.4454 
     38 C         -74.5101   26.5915  -76.2245 C.2       7 UNK         0.5089 
     39 O         -73.7442   26.3162  -77.1490 O.2       7 UNK        -0.5125 
     40 CA        -75.3075   27.9058  -76.3022 C.3       6 UNK         0.0408 
     41 CB        -75.8236   28.1956  -77.7279 C.3       6 UNK        -0.1791 
     42 N         -76.4044   28.0190  -75.3330 N.am      6 UNK        -0.4762 
     43 C         -76.8613   29.1968  -74.8828 C.2       6 UNK         0.5007 
     44 O         -76.3860   30.2823  -75.2250 O.2       6 UNK        -0.5032 
     45 CA        -78.0774   29.1852  -73.9357 C.3       5 UNK         0.0783 
     46 C46       -78.1019   30.4725  -73.0627 C.3       11 UNK        -0.0857 
     47 S47       -79.3303   30.3981  -71.7164 S.3       11 UNK        -0.2512 
     48 C48       -78.2551   30.3497  -70.2384 C.3       11 UNK         0.0225 
     49 N         -79.3059   29.0628  -74.7252 N.am      5 UNK        -0.4615 
     50 C         -79.7549   27.9556  -75.3283 C.2       4 UNK         0.5053 
     51 O         -79.2089   26.8549  -75.2311 O.2       4 UNK        -0.5105 
     52 CA        -81.0111   28.1547  -76.2004 C.3       4 UNK         0.0263 
     53 CB        -80.6394   28.8043  -77.5502 C.3       4 UNK        -0.1981 
     54 N         -81.8238   26.9441  -76.3977 N.am      4 UNK        -0.4224 
     55 C         -81.5193   25.8390  -77.0928 C.2       3 UNK         0.4895 
     56 O         -80.4714   25.6623  -77.7176 O.2       3 UNK        -0.5091 
     57 CA        -82.5810   24.7337  -77.1170 C.3       3 UNK         0.0250 
     58 CB        -83.3657   24.7395  -78.4414 C.3       3 UNK        -0.1996 
     59 N         -81.8768   23.4720  -76.9420 N.am      3 UNK        -0.4254 
     60 C         -82.3888   22.3221  -76.4889 C.2       2 UNK         0.5004 
     61 O         -83.5899   22.1236  -76.3040 O.2       2 UNK        -0.5226 
     62 CA        -81.3670   21.2250  -76.1308 C.3       2 UNK         0.0269 
     63 CB        -81.0513   20.3519  -77.3557 C.3       2 UNK        -0.1926 
     64 N         -80.1221   21.7962  -75.6024 N.am      2 UNK        -0.4687 
     65 C         -80.0293   22.4670  -74.4445 C.2       1 UNK         0.5165 
     66 O         -80.9334   22.4791  -73.6063 O.2       1 UNK        -0.5079 
     67 H67       -76.3345   24.6540  -77.7597 H         1 UNK         0.0900 
     68 H68       -77.7611   25.6124  -77.3409 H         1 UNK         0.0900 
     69 H69       -77.8936   24.3074  -78.5173 H         1 UNK         0.0900 
     70 H70       -78.7037   25.0571  -75.4009 H         1 UNK         0.2959 
     71 H71       -77.9456   22.5979  -74.0225 H         1 UNK         0.1079 
     72 H72       -79.7625   24.8685  -73.0619 H         1 UNK         0.0837 
     73 H73       -79.0220   23.6239  -72.0784 H         1 UNK         0.0837 
     74 H74       -78.3243   25.3022  -70.4950 H         1 UNK         0.0685 
     75 H75       -76.6854   24.6777  -70.5462 H         1 UNK         0.0685 
     76 H76       -78.7849   27.7031  -70.5313 H         1 UNK         0.1434 
     77 H77       -75.5166   30.4470  -70.0952 H         1 UNK         0.1329 
     78 H78       -74.7505   26.2651  -70.6624 H         1 UNK         0.1335 
     79 H79       -73.2485   29.5635  -69.7767 H         1 UNK         0.0680 
     80 H80       -73.0016   27.8388  -69.7029 H         1 UNK         0.0680 
     81 H81       -72.0198   30.9187  -72.1093 H         1 UNK         0.1032 
     82 H82       -73.7490   30.8213  -71.8856 H         1 UNK         0.1032 
     83 H83       -74.0442   30.0282  -74.2117 H         1 UNK         0.0461 
     84 H84       -74.7261   33.4102  -74.9421 H         1 UNK         0.3453 
     85 H85       -75.2727   31.7437  -74.8966 H         1 UNK         0.3453 
     86 H86       -71.3625   29.4427  -74.1969 H         1 UNK         0.2984 
     87 H87       -71.1411   28.7430  -77.6652 H         1 UNK         0.0554 
     88 H88       -69.1351   30.0445  -75.7507 H         1 UNK         0.0847 
     89 H89       -69.5627   30.5968  -77.3587 H         1 UNK         0.0847 
     90 H90       -68.7178   29.0700  -77.1599 H         1 UNK         0.0847 
     91 H91       -71.1774   26.9164  -76.4591 H         1 UNK         0.3141 
     92 H92       -69.9310   25.3304  -74.8842 H         1 UNK         0.0743 
     93 H93       -68.9822   25.9780  -72.6739 H         1 UNK         0.0784 
     94 H94       -70.5840   26.3910  -72.0758 H         1 UNK         0.0784 
     95 H95       -70.1913   24.7196  -72.4736 H         1 UNK         0.0784 
     96 H96       -72.5752   26.3881  -73.9993 H         1 UNK         0.3213 
     97 H97       -74.2136   23.9105  -75.8945 H         1 UNK         0.0855 
     98 H98       -74.0132   22.8059  -73.6219 H         1 UNK         0.0814 
     99 H99       -75.5993   23.4550  -73.9653 H         1 UNK         0.0814 
    100 H100      -74.5057   24.3202  -72.8772 H         1 UNK         0.0814 
    101 H101      -75.2840   26.0843  -74.4046 H         1 UNK         0.3105 
    102 H102      -74.5726   28.6738  -76.0652 H         1 UNK         0.0547 
    103 H103      -75.0160   28.1547  -78.4599 H         1 UNK         0.0837 
    104 H104      -76.2574   29.1929  -77.7992 H         1 UNK         0.0837 
    105 H105      -76.5836   27.4807  -78.0385 H         1 UNK         0.0837 
    106 H106      -76.9150   27.1769  -75.0943 H         1 UNK         0.3020 
    107 H107      -77.9838   28.3167  -73.2804 H         1 UNK         0.1245 
    108 H108      -78.3261   31.3487  -73.6743 H         1 UNK         0.0781 
    109 H109      -77.1178   30.6652  -72.6310 H         1 UNK         0.0781 
    110 H110      -78.8768   30.2467  -69.3481 H         1 UNK         0.0836 
    111 H111      -77.7387   31.3065  -70.1458 H         1 UNK         0.0836 
    112 H112      -79.8103   29.9251  -74.8683 H         1 UNK         0.3022 
    113 H113      -81.6619   28.8495  -75.6669 H         1 UNK         0.0747 
    114 H114      -81.5193   28.9522  -78.1763 H         1 UNK         0.0793 
    115 H115      -80.1804   29.7827  -77.4029 H         1 UNK         0.0793 
    116 H116      -79.9262   28.1992  -78.1111 H         1 UNK         0.0793 
    117 H117      -82.7101   26.9540  -75.9122 H         1 UNK         0.3047 
    118 H118      -83.2704   24.8730  -76.2813 H         1 UNK         0.0822 
    119 H119      -84.1260   23.9586  -78.4581 H         1 UNK         0.0807 
    120 H120      -82.7081   24.5850  -79.2979 H         1 UNK         0.0807 
    121 H121      -83.8760   25.6923  -78.5879 H         1 UNK         0.0807 
    122 H122      -80.8745   23.5471  -77.0611 H         1 UNK         0.2946 
    123 H123      -81.8131   20.5947  -75.3580 H         1 UNK         0.1144 
    124 H124      -81.9607   19.9041  -77.7591 H         1 UNK         0.0793 
    125 H125      -80.3764   19.5358  -77.0971 H         1 UNK         0.0793 
    126 H126      -80.5885   20.9296  -78.1569 H         1 UNK         0.0793 
    127 H127      -79.3139   21.8132  -76.2158 H         1 UNK         0.2896 
@<TRIPOS>BOND
     1    1    2 1    
     2    1   67 1    
     3    1   68 1    
     4    1   69 1    
     5    2    3 2    
     6    2    4 am   BACKBONE|DICT|INTERRES
     7    4    5 1    
     8    4   70 1    
     9    5    6 1    
    10    5   65 1    
    11    5   71 1    
    12    6    7 1    
    13    6   72 1    
    14    6   73 1    
    15    7    8 1    
    16    8    9 1    
    17    8   74 1    
    18    8   75 1    
    19    9   10 ar   
    20    9   14 ar   
    21   10   11 ar   
    22   10   76 1    
    23   11   12 ar   
    24   11   48 1    
    25   12   13 ar   
    26   12   77 1    
    27   13   14 ar   
    28   13   15 1    
    29   14   78 1    
    30   15   16 1    
    31   15   79 1    
    32   15   80 1    
    33   16   17 1    
    34   17   18 1    
    35   17   81 1    
    36   17   82 1    
    37   18   19 1    
    38   18   22 1    
    39   18   83 1    
    40   19   20 am   BACKBONE|DICT|INTERRES
    41   19   21 2    
    42   20   84 1    
    43   20   85 1    
    44   22   23 am   BACKBONE|DICT|INTERRES
    45   22   86 1    
    46   23   24 2    
    47   23   25 1    
    48   25   26 1    
    49   25   27 1    
    50   25   87 1    
    51   26   88 1    
    52   26   89 1    
    53   26   90 1    
    54   27   28 am   BACKBONE|DICT|INTERRES
    55   27   91 1    
    56   28   29 2    
    57   28   30 1    
    58   30   31 1    
    59   30   32 1    
    60   30   92 1    
    61   31   93 1    
    62   31   94 1    
    63   31   95 1    
    64   32   33 am   BACKBONE|DICT|INTERRES
    65   32   96 1    
    66   33   34 2    
    67   33   35 1    
    68   35   36 1    
    69   35   37 1    
    70   35   97 1    
    71   36   98 1    
    72   36   99 1    
    73   36  100 1    
    74   37   38 am   BACKBONE|DICT|INTERRES
    75   37  101 1    
    76   38   39 2    
    77   38   40 1    
    78   40   41 1    
    79   40   42 1    
    80   40  102 1    
    81   41  103 1    
    82   41  104 1    
    83   41  105 1    
    84   42   43 am   BACKBONE|DICT|INTERRES
    85   42  106 1    
    86   43   44 2    
    87   43   45 1    
    88   45   46 1    
    89   45   49 1    
    90   45  107 1    
    91   46   47 1    
    92   46  108 1    
    93   46  109 1    
    94   47   48 1    
    95   48  110 1    
    96   48  111 1    
    97   49   50 am   BACKBONE|DICT|INTERRES
    98   49  112 1    
    99   50   51 2    
   100   50   52 1    
   101   52   53 1    
   102   52   54 1    
   103   52  113 1    
   104   53  114 1    
   105   53  115 1    
   106   53  116 1    
   107   54   55 am   BACKBONE|DICT|INTERRES
   108   54  117 1    
   109   55   56 2    
   110   55   57 1    
   111   57   58 1    
   112   57   59 1    
   113   57  118 1    
   114   58  119 1    
   115   58  120 1    
   116   58  121 1    
   117   59   60 am   BACKBONE|DICT|INTERRES
   118   59  122 1    
   119   60   61 2    
   120   60   62 1    
   121   62   63 1    
   122   62   64 1    
   123   62  123 1    
   124   63  124 1    
   125   63  125 1    
   126   63  126 1    
   127   64   65 am   BACKBONE|DICT|INTERRES
   128   64  127 1    
   129   65   66 2    
@<TRIPOS>SUBSTRUCTURE
     1 UNK         1 GROUP             0       ****    0 ROOT    
