@<TRIPOS>MOLECULE
3R135
127   129    1
SMALL
USER_CHARGES


@<TRIPOS>ATOM
      1 CA        -83.6918   26.3582  -70.3523 C.3       0 UNK        -0.1998 
      2 C         -82.6095   25.3203  -70.0667 C.2       0 UNK         0.4909 
      3 O         -82.7951   24.4816  -69.1873 O.2       0 UNK        -0.5240 
      4 N         -81.4676   25.3295  -70.7700 N.am      1 UNK        -0.4739 
      5 CA        -81.1049   26.2449  -71.8628 C.3       1 UNK         0.0864 
      6 C6        -79.5745   26.2914  -72.0898 C.3       11 UNK        -0.0881 
      7 S7        -78.6141   26.7984  -70.6237 S.3       11 UNK        -0.2682 
      8 C8        -78.9918   28.5766  -70.4885 C.3       11 UNK         0.0289 
      9 C9        -78.5046   29.3818  -71.6859 C.ar      11 UNK        -0.0687 
     10 C10       -79.3745   29.6631  -72.7437 C.ar      11 UNK        -0.0823 
     11 C11       -78.9469   30.4278  -73.8319 C.ar      11 UNK        -0.0830 
     12 C12       -77.6467   30.9400  -73.8423 C.ar      11 UNK        -0.1021 
     13 C13       -76.7628   30.6595  -72.7961 C.ar      11 UNK        -0.0753 
     14 C14       -77.1964   29.8750  -71.7218 C.ar      11 UNK        -0.0933 
     15 C15       -75.3506   31.2297  -72.8150 C.3       11 UNK         0.0166 
     16 S16       -74.3863   30.6741  -74.2573 S.3       11 UNK        -0.2615 
     17 C17       -74.1184   28.9126  -73.8641 C.3       11 UNK        -0.0865 
     18 CA        -72.7986   28.6646  -73.0903 C.3       10 UNK         0.0862 
     19 C         -72.6911   27.1873  -72.6073 C.2       10 UNK         0.5551 
     20 N         -71.6834   26.4174  -73.0051 N.am      10 UNK        -0.7319 
     21 O         -73.5273   26.7387  -71.8276 O.2       10 UNK        -0.5018 
     22 N         -71.6308   29.1381  -73.8481 N.am      10 UNK        -0.4509 
     23 C         -70.4555   29.4811  -73.3056 C.2       10 UNK         0.4899 
     24 O         -70.2559   29.5314  -72.0907 O.2       10 UNK        -0.4839 
     25 CA        -69.3094   29.8230  -74.2843 C.3       9 UNK         0.0222 
     26 CB        -67.9153   29.5933  -73.6620 C.3       9 UNK        -0.1966 
     27 N         -69.4095   29.1406  -75.5838 N.am      9 UNK        -0.4218 
     28 C         -69.4708   27.8177  -75.7945 C.2       9 UNK         0.5020 
     29 O         -69.4332   26.9674  -74.9011 O.2       9 UNK        -0.5274 
     30 CA        -69.6211   27.3679  -77.2563 C.3       8 UNK         0.0270 
     31 CB        -68.2908   26.8152  -77.7933 C.3       8 UNK        -0.1976 
     32 N         -70.6625   26.3475  -77.3879 N.am      8 UNK        -0.4313 
     33 C         -71.9648   26.5589  -77.1577 C.2       8 UNK         0.5041 
     34 O         -72.4384   27.6585  -76.8578 O.2       8 UNK        -0.5577 
     35 CA        -72.8724   25.3221  -77.2473 C.3       7 UNK         0.0284 
     36 CB        -72.8859   24.5635  -75.9102 C.3       7 UNK        -0.1958 
     37 N         -74.2421   25.6875  -77.6157 N.am      7 UNK        -0.4454 
     38 C         -74.6329   25.9450  -78.8728 C.2       7 UNK         0.5089 
     39 O         -73.8724   25.8814  -79.8405 O.2       7 UNK        -0.5125 
     40 CA        -76.1132   26.2956  -79.1261 C.3       6 UNK         0.0408 
     41 CB        -76.7946   25.1844  -79.9423 C.3       6 UNK        -0.1791 
     42 N         -76.8853   26.5153  -77.9023 N.am      6 UNK        -0.4762 
     43 C         -76.9254   27.6724  -77.2223 C.2       6 UNK         0.5007 
     44 O         -76.3244   28.6858  -77.5790 O.2       6 UNK        -0.5032 
     45 CA        -77.7490   27.6887  -75.9092 C.3       5 UNK         0.0783 
     46 C46       -79.1974   28.1921  -76.1453 C.3       11 UNK        -0.0857 
     47 S47       -79.2952   29.9700  -76.5538 S.3       11 UNK        -0.2512 
     48 C48       -79.8912   30.7008  -74.9942 C.3       11 UNK         0.0225 
     49 N         -77.7582   26.3773  -75.2465 N.am      5 UNK        -0.4615 
     50 C         -76.6648   25.7249  -74.8282 C.2       4 UNK         0.5053 
     51 O         -75.5433   26.2223  -74.8422 O.2       4 UNK        -0.5105 
     52 CA        -76.8090   24.2516  -74.4046 C.3       4 UNK         0.0263 
     53 CB        -76.4514   24.0568  -72.9214 C.3       4 UNK        -0.1981 
     54 N         -78.1077   23.6315  -74.7058 N.am      4 UNK        -0.4224 
     55 C         -78.5671   23.3994  -75.9469 C.2       3 UNK         0.4895 
     56 O         -78.0101   23.8092  -76.9661 O.2       3 UNK        -0.5091 
     57 CA        -79.8634   22.5897  -76.0741 C.3       3 UNK         0.0250 
     58 CB        -79.6063   21.1058  -75.7600 C.3       3 UNK        -0.1996 
     59 N         -80.9164   23.1029  -75.1934 N.am      3 UNK        -0.4254 
     60 C         -81.9852   23.7961  -75.6114 C.2       2 UNK         0.5004 
     61 O         -82.1887   24.1155  -76.7830 O.2       2 UNK        -0.5226 
     62 CA        -83.0054   24.1994  -74.5337 C.3       2 UNK         0.0269 
     63 CB        -83.9339   23.0223  -74.1920 C.3       2 UNK        -0.1926 
     64 N         -82.3618   24.6873  -73.3114 N.am      2 UNK        -0.4687 
     65 C         -81.8009   25.8997  -73.1957 C.2       1 UNK         0.5165 
     66 O         -81.8080   26.7376  -74.0965 O.2       1 UNK        -0.5079 
     67 H67       -84.0674   26.2680  -71.3707 H         1 UNK         0.0900 
     68 H68       -84.5369   26.2204  -69.6782 H         1 UNK         0.0900 
     69 H69       -83.3140   27.3686  -70.2007 H         1 UNK         0.0900 
     70 H70       -80.7563   24.6542  -70.5277 H         1 UNK         0.2959 
     71 H71       -81.4338   27.2504  -71.5989 H         1 UNK         0.1079 
     72 H72       -79.3134   26.9532  -72.9160 H         1 UNK         0.0837 
     73 H73       -79.2257   25.3033  -72.3879 H         1 UNK         0.0837 
     74 H74       -80.0642   28.7144  -70.3464 H         1 UNK         0.0685 
     75 H75       -78.5232   28.9593  -69.5806 H         1 UNK         0.0685 
     76 H76       -80.3859   29.2813  -72.7227 H         1 UNK         0.1434 
     77 H77       -77.3145   31.5418  -74.6776 H         1 UNK         0.1329 
     78 H78       -76.5222   29.6588  -70.9042 H         1 UNK         0.1335 
     79 H79       -75.4135   32.3185  -72.8361 H         1 UNK         0.0680 
     80 H80       -74.8098   30.9717  -71.9032 H         1 UNK         0.0680 
     81 H81       -74.9779   28.5324  -73.3084 H         1 UNK         0.1032 
     82 H82       -74.1054   28.3613  -74.8056 H         1 UNK         0.1032 
     83 H83       -72.8543   29.2592  -72.1765 H         1 UNK         0.0461 
     84 H84       -71.6279   25.4720  -72.6640 H         1 UNK         0.3453 
     85 H85       -70.9695   26.7671  -73.6354 H         1 UNK         0.3453 
     86 H86       -71.7151   29.0953  -74.8546 H         1 UNK         0.2984 
     87 H87       -69.4045   30.8893  -74.4940 H         1 UNK         0.0554 
     88 H88       -67.7768   30.2049  -72.7696 H         1 UNK         0.0847 
     89 H89       -67.1201   29.8580  -74.3587 H         1 UNK         0.0847 
     90 H90       -67.7711   28.5530  -73.3681 H         1 UNK         0.0847 
     91 H91       -69.4700   29.7507  -76.3880 H         1 UNK         0.3141 
     92 H92       -69.9125   28.2245  -77.8682 H         1 UNK         0.0743 
     93 H93       -67.9573   25.9442  -77.2272 H         1 UNK         0.0784 
     94 H94       -68.3742   26.5245  -78.8408 H         1 UNK         0.0784 
     95 H95       -67.5023   27.5663  -77.7284 H         1 UNK         0.0784 
     96 H96       -70.3486   25.4079  -77.5831 H         1 UNK         0.3213 
     97 H97       -72.4751   24.6519  -78.0131 H         1 UNK         0.0855 
     98 H98       -73.2053   25.2024  -75.0873 H         1 UNK         0.0814 
     99 H99       -71.8903   24.1955  -75.6597 H         1 UNK         0.0814 
    100 H100      -73.5516   23.7012  -75.9454 H         1 UNK         0.0814 
    101 H101      -74.8842   25.8628  -76.8523 H         1 UNK         0.3105 
    102 H102      -76.1318   27.2087  -79.7248 H         1 UNK         0.0547 
    103 H103      -77.8313   25.4345  -80.1675 H         1 UNK         0.0837 
    104 H104      -76.7869   24.2317  -79.4112 H         1 UNK         0.0837 
    105 H105      -76.2864   25.0295  -80.8950 H         1 UNK         0.0837 
    106 H106      -77.3761   25.7069  -77.5316 H         1 UNK         0.3020 
    107 H107      -77.2465   28.3806  -75.2286 H         1 UNK         0.1245 
    108 H108      -79.8012   28.0175  -75.2547 H         1 UNK         0.0781 
    109 H109      -79.6808   27.6236  -76.9421 H         1 UNK         0.0781 
    110 H110      -80.8924   30.3205  -74.7847 H         1 UNK         0.0836 
    111 H111      -79.9942   31.7789  -75.1249 H         1 UNK         0.0836 
    112 H112      -78.6380   25.8846  -75.2365 H         1 UNK         0.3022 
    113 H113      -76.0626   23.7044  -74.9848 H         1 UNK         0.0747 
    114 H114      -76.4698   23.0036  -72.6411 H         1 UNK         0.0793 
    115 H115      -75.4442   24.4242  -72.7171 H         1 UNK         0.0793 
    116 H116      -77.1226   24.5956  -72.2563 H         1 UNK         0.0793 
    117 H117      -78.6159   23.2534  -73.9212 H         1 UNK         0.3047 
    118 H118      -80.1812   22.6516  -77.1175 H         1 UNK         0.0822 
    119 H119      -80.5012   20.5072  -75.9320 H         1 UNK         0.0807 
    120 H120      -79.2959   20.9507  -74.7261 H         1 UNK         0.0807 
    121 H121      -78.8212   20.7016  -76.4007 H         1 UNK         0.0807 
    122 H122      -80.8489   22.8821  -74.2112 H         1 UNK         0.2946 
    123 H123      -83.6191   25.0032  -74.9484 H         1 UNK         0.1144 
    124 H124      -83.3886   22.1855  -73.7538 H         1 UNK         0.0793 
    125 H125      -84.4367   22.6509  -75.0862 H         1 UNK         0.0793 
    126 H126      -84.7100   23.3224  -73.4876 H         1 UNK         0.0793 
    127 H127      -82.3269   24.0609  -72.5194 H         1 UNK         0.2896 
@<TRIPOS>BOND
     1    1    2 1    
     2    1   67 1    
     3    1   68 1    
     4    1   69 1    
     5    2    3 2    
     6    2    4 am   BACKBONE|DICT|INTERRES
     7    4    5 1    
     8    4   70 1    
     9    5    6 1    
    10    5   65 1    
    11    5   71 1    
    12    6    7 1    
    13    6   72 1    
    14    6   73 1    
    15    7    8 1    
    16    8    9 1    
    17    8   74 1    
    18    8   75 1    
    19    9   10 ar   
    20    9   14 ar   
    21   10   11 ar   
    22   10   76 1    
    23   11   12 ar   
    24   11   48 1    
    25   12   13 ar   
    26   12   77 1    
    27   13   14 ar   
    28   13   15 1    
    29   14   78 1    
    30   15   16 1    
    31   15   79 1    
    32   15   80 1    
    33   16   17 1    
    34   17   18 1    
    35   17   81 1    
    36   17   82 1    
    37   18   19 1    
    38   18   22 1    
    39   18   83 1    
    40   19   20 am   BACKBONE|DICT|INTERRES
    41   19   21 2    
    42   20   84 1    
    43   20   85 1    
    44   22   23 am   BACKBONE|DICT|INTERRES
    45   22   86 1    
    46   23   24 2    
    47   23   25 1    
    48   25   26 1    
    49   25   27 1    
    50   25   87 1    
    51   26   88 1    
    52   26   89 1    
    53   26   90 1    
    54   27   28 am   BACKBONE|DICT|INTERRES
    55   27   91 1    
    56   28   29 2    
    57   28   30 1    
    58   30   31 1    
    59   30   32 1    
    60   30   92 1    
    61   31   93 1    
    62   31   94 1    
    63   31   95 1    
    64   32   33 am   BACKBONE|DICT|INTERRES
    65   32   96 1    
    66   33   34 2    
    67   33   35 1    
    68   35   36 1    
    69   35   37 1    
    70   35   97 1    
    71   36   98 1    
    72   36   99 1    
    73   36  100 1    
    74   37   38 am   BACKBONE|DICT|INTERRES
    75   37  101 1    
    76   38   39 2    
    77   38   40 1    
    78   40   41 1    
    79   40   42 1    
    80   40  102 1    
    81   41  103 1    
    82   41  104 1    
    83   41  105 1    
    84   42   43 am   BACKBONE|DICT|INTERRES
    85   42  106 1    
    86   43   44 2    
    87   43   45 1    
    88   45   46 1    
    89   45   49 1    
    90   45  107 1    
    91   46   47 1    
    92   46  108 1    
    93   46  109 1    
    94   47   48 1    
    95   48  110 1    
    96   48  111 1    
    97   49   50 am   BACKBONE|DICT|INTERRES
    98   49  112 1    
    99   50   51 2    
   100   50   52 1    
   101   52   53 1    
   102   52   54 1    
   103   52  113 1    
   104   53  114 1    
   105   53  115 1    
   106   53  116 1    
   107   54   55 am   BACKBONE|DICT|INTERRES
   108   54  117 1    
   109   55   56 2    
   110   55   57 1    
   111   57   58 1    
   112   57   59 1    
   113   57  118 1    
   114   58  119 1    
   115   58  120 1    
   116   58  121 1    
   117   59   60 am   BACKBONE|DICT|INTERRES
   118   59  122 1    
   119   60   61 2    
   120   60   62 1    
   121   62   63 1    
   122   62   64 1    
   123   62  123 1    
   124   63  124 1    
   125   63  125 1    
   126   63  126 1    
   127   64   65 am   BACKBONE|DICT|INTERRES
   128   64  127 1    
   129   65   66 2    
@<TRIPOS>SUBSTRUCTURE
     1 UNK         1 GROUP             0       ****    0 ROOT    
