@<TRIPOS>MOLECULE
3R135
127   129    1
SMALL
USER_CHARGES


@<TRIPOS>ATOM
      1 CA        -85.1677   26.1069  -70.7145 C.3       0 UNK        -0.1998 
      2 C         -84.6190   26.6553  -72.0232 C.2       0 UNK         0.4909 
      3 O         -85.2423   26.4762  -73.0698 O.2       0 UNK        -0.5240 
      4 N         -83.4603   27.3267  -71.9697 N.am      1 UNK        -0.4739 
      5 CA        -82.7604   27.8937  -73.1298 C.3       1 UNK         0.0864 
      6 C6        -81.6589   28.8820  -72.6722 C.3       11 UNK        -0.0881 
      7 S7        -81.0663   30.0048  -73.9848 S.3       11 UNK        -0.2682 
      8 C8        -79.5382   29.1867  -74.5479 C.3       11 UNK         0.0289 
      9 C9        -78.4129   29.2724  -73.5269 C.ar      11 UNK        -0.0687 
     10 C10       -78.2088   28.2289  -72.6204 C.ar      11 UNK        -0.0823 
     11 C11       -77.2086   28.3144  -71.6490 C.ar      11 UNK        -0.0830 
     12 C12       -76.3877   29.4440  -71.6110 C.ar      11 UNK        -0.1021 
     13 C13       -76.5581   30.4853  -72.5317 C.ar      11 UNK        -0.0753 
     14 C14       -77.5765   30.3925  -73.4864 C.ar      11 UNK        -0.0933 
     15 C15       -75.7020   31.7450  -72.4470 C.3       11 UNK         0.0166 
     16 S16       -73.9258   31.3901  -72.2372 S.3       11 UNK        -0.2615 
     17 C17       -73.2389   31.6819  -73.9059 C.3       11 UNK        -0.0865 
     18 CA        -73.1848   30.4374  -74.8462 C.3       10 UNK         0.0862 
     19 C         -72.4447   30.7731  -76.1790 C.2       10 UNK         0.5551 
     20 N         -71.6182   29.8925  -76.7303 N.am      10 UNK        -0.7319 
     21 O         -72.6319   31.8542  -76.7332 O.2       10 UNK        -0.5018 
     22 N         -72.7329   29.2032  -74.1788 N.am      10 UNK        -0.4509 
     23 C         -71.5616   29.0258  -73.5533 C.2       10 UNK         0.4899 
     24 O         -70.6601   29.8631  -73.5080 O.2       10 UNK        -0.4839 
     25 CA        -71.3657   27.6758  -72.8581 C.3       9 UNK         0.0222 
     26 CB        -72.2792   27.5603  -71.6248 C.3       9 UNK        -0.1966 
     27 N         -71.6465   26.5822  -73.7885 N.am      9 UNK        -0.4218 
     28 C         -70.7086   25.8137  -74.3555 C.2       9 UNK         0.5020 
     29 O         -69.5003   25.9312  -74.1440 O.2       9 UNK        -0.5274 
     30 CA        -71.1880   24.7057  -75.3058 C.3       8 UNK         0.0270 
     31 CB        -71.6037   23.4594  -74.5068 C.3       8 UNK        -0.1976 
     32 N         -72.2764   25.1000  -76.2046 N.am      8 UNK        -0.4313 
     33 C         -72.1559   25.9856  -77.2046 C.2       8 UNK         0.5041 
     34 O         -71.1497   26.6687  -77.3971 O.2       8 UNK        -0.5577 
     35 CA        -73.3443   26.1110  -78.1704 C.3       7 UNK         0.0284 
     36 CB        -73.5097   24.8370  -79.0166 C.3       7 UNK        -0.1958 
     37 N         -74.5841   26.3825  -77.4502 N.am      7 UNK        -0.4454 
     38 C         -75.0289   27.6068  -77.1395 C.2       7 UNK         0.5089 
     39 O         -74.5076   28.6484  -77.5317 O.2       7 UNK        -0.5125 
     40 CA        -76.2756   27.6916  -76.2406 C.3       6 UNK         0.0408 
     41 CB        -77.5282   27.8040  -77.1253 C.3       6 UNK        -0.1791 
     42 N         -76.4142   26.5596  -75.3163 N.am      6 UNK        -0.4762 
     43 C         -75.5041   26.1967  -74.3976 C.2       6 UNK         0.5007 
     44 O         -74.4486   26.8040  -74.2059 O.2       6 UNK        -0.5032 
     45 CA        -75.7637   24.8769  -73.6395 C.3       5 UNK         0.0783 
     46 C46       -76.6213   25.0576  -72.3676 C.3       11 UNK        -0.0857 
     47 S47       -75.7769   25.9992  -71.0548 S.3       11 UNK        -0.2512 
     48 C48       -77.0495   27.2188  -70.6037 C.3       11 UNK         0.0225 
     49 N         -76.3525   23.8638  -74.5176 N.am      5 UNK        -0.4615 
     50 C         -75.7167   23.2674  -75.5334 C.2       4 UNK         0.5053 
     51 O         -74.5460   23.4922  -75.8349 O.2       4 UNK        -0.5105 
     52 CA        -76.5514   22.3021  -76.3885 C.3       4 UNK         0.0263 
     53 CB        -76.7229   20.9500  -75.6783 C.3       4 UNK        -0.1981 
     54 N         -77.8641   22.8634  -76.7168 N.am      4 UNK        -0.4224 
     55 C         -78.0434   23.9359  -77.5014 C.2       3 UNK         0.4895 
     56 O         -77.1285   24.5057  -78.0954 O.2       3 UNK        -0.5091 
     57 CA        -79.4758   24.4817  -77.6303 C.3       3 UNK         0.0250 
     58 CB        -80.1751   23.8640  -78.8516 C.3       3 UNK        -0.1996 
     59 N         -80.3107   24.2845  -76.4395 N.am      3 UNK        -0.4254 
     60 C         -80.0810   24.8257  -75.2344 C.2       2 UNK         0.5004 
     61 O         -79.0803   25.4883  -74.9533 O.2       2 UNK        -0.5226 
     62 CA        -81.1264   24.5361  -74.1433 C.3       2 UNK         0.0269 
     63 CB        -80.5433   23.5761  -73.0932 C.3       2 UNK        -0.1926 
     64 N         -81.6151   25.7434  -73.4683 N.am      2 UNK        -0.4687 
     65 C         -82.2199   26.7852  -74.0629 C.2       1 UNK         0.5165 
     66 O         -82.4073   26.8685  -75.2777 O.2       1 UNK        -0.5079 
     67 H67       -84.5225   26.3450  -69.8691 H         1 UNK         0.0900 
     68 H68       -85.2633   25.0230  -70.7732 H         1 UNK         0.0900 
     69 H69       -86.1539   26.5259  -70.5164 H         1 UNK         0.0900 
     70 H70       -83.0058   27.4495  -71.0758 H         1 UNK         0.2959 
     71 H71       -83.5000   28.4587  -73.7025 H         1 UNK         0.1079 
     72 H72       -82.0632   29.5301  -71.8927 H         1 UNK         0.0837 
     73 H73       -80.8328   28.3566  -72.1983 H         1 UNK         0.0837 
     74 H74       -79.7547   28.1456  -74.7859 H         1 UNK         0.0685 
     75 H75       -79.2201   29.6558  -75.4797 H         1 UNK         0.0685 
     76 H76       -78.8491   27.3593  -72.6603 H         1 UNK         0.1434 
     77 H77       -75.6216   29.5184  -70.8514 H         1 UNK         0.1329 
     78 H78       -77.7361   31.2018  -74.1857 H         1 UNK         0.1335 
     79 H79       -75.8558   32.3817  -73.3191 H         1 UNK         0.0680 
     80 H80       -76.0380   32.3239  -71.5859 H         1 UNK         0.0680 
     81 H81       -72.2308   32.0752  -73.7629 H         1 UNK         0.1032 
     82 H82       -73.7951   32.4905  -74.3829 H         1 UNK         0.1032 
     83 H83       -74.2122   30.2235  -75.1419 H         1 UNK         0.0461 
     84 H84       -71.4862   28.9824  -76.3175 H         1 UNK         0.3453 
     85 H85       -71.1611   30.1214  -77.5977 H         1 UNK         0.3453 
     86 H86       -73.4071   28.4437  -74.1665 H         1 UNK         0.2984 
     87 H87       -70.3329   27.6257  -72.5070 H         1 UNK         0.0554 
     88 H88       -72.1366   26.6090  -71.1123 H         1 UNK         0.0847 
     89 H89       -73.3348   27.6427  -71.8857 H         1 UNK         0.0847 
     90 H90       -72.0636   28.3527  -70.9070 H         1 UNK         0.0847 
     91 H91       -72.6217   26.4513  -74.0472 H         1 UNK         0.3141 
     92 H92       -70.3377   24.4287  -75.9328 H         1 UNK         0.0743 
     93 H93       -72.4692   23.6557  -73.8733 H         1 UNK         0.0784 
     94 H94       -71.8551   22.6299  -75.1681 H         1 UNK         0.0784 
     95 H95       -70.7940   23.1222  -73.8582 H         1 UNK         0.0784 
     96 H96       -73.1415   24.5666  -76.1203 H         1 UNK         0.3213 
     97 H97       -73.1334   26.9369  -78.8537 H         1 UNK         0.0855 
     98 H98       -73.7466   23.9649  -78.4065 H         1 UNK         0.0814 
     99 H99       -72.5947   24.6129  -79.5664 H         1 UNK         0.0814 
    100 H100      -74.3085   24.9533  -79.7494 H         1 UNK         0.0814 
    101 H101      -75.1109   25.5852  -77.1179 H         1 UNK         0.3105 
    102 H102      -76.1977   28.5927  -75.6291 H         1 UNK         0.0547 
    103 H103      -77.6007   28.8008  -77.5613 H         1 UNK         0.0837 
    104 H104      -77.5040   27.0969  -77.9541 H         1 UNK         0.0837 
    105 H105      -78.4444   27.6191  -76.5706 H         1 UNK         0.0837 
    106 H106      -77.2865   26.0382  -75.3582 H         1 UNK         0.3020 
    107 H107      -74.7873   24.4991  -73.3279 H         1 UNK         0.1245 
    108 H108      -76.8580   24.0801  -71.9443 H         1 UNK         0.0781 
    109 H109      -77.5819   25.5066  -72.6147 H         1 UNK         0.0781 
    110 H110      -76.7754   27.6677  -69.6477 H         1 UNK         0.0836 
    111 H111      -77.9994   26.7099  -70.4320 H         1 UNK         0.0836 
    112 H112      -77.3334   23.6709  -74.3819 H         1 UNK         0.3022 
    113 H113      -76.0104   22.1319  -77.3221 H         1 UNK         0.0747 
    114 H114      -77.2473   20.2342  -76.3117 H         1 UNK         0.0793 
    115 H115      -75.7532   20.5136  -75.4341 H         1 UNK         0.0793 
    116 H116      -77.2813   21.0454  -74.7462 H         1 UNK         0.0793 
    117 H117      -78.6725   22.4411  -76.2845 H         1 UNK         0.3047 
    118 H118      -79.3986   25.5577  -77.7956 H         1 UNK         0.0822 
    119 H119      -81.1521   24.3169  -79.0215 H         1 UNK         0.0807 
    120 H120      -80.3172   22.7887  -78.7366 H         1 UNK         0.0807 
    121 H121      -79.5874   24.0198  -79.7577 H         1 UNK         0.0807 
    122 H122      -81.1544   23.7458  -76.5744 H         1 UNK         0.2946 
    123 H123      -81.9912   24.0552  -74.6056 H         1 UNK         0.1144 
    124 H124      -81.2942   23.2901  -72.3563 H         1 UNK         0.0793 
    125 H125      -79.7037   24.0232  -72.5595 H         1 UNK         0.0793 
    126 H126      -80.1832   22.6570  -73.5573 H         1 UNK         0.0793 
    127 H127      -81.5223   25.7622  -72.4638 H         1 UNK         0.2896 
@<TRIPOS>BOND
     1    1    2 1    
     2    1   67 1    
     3    1   68 1    
     4    1   69 1    
     5    2    3 2    
     6    2    4 am   BACKBONE|DICT|INTERRES
     7    4    5 1    
     8    4   70 1    
     9    5    6 1    
    10    5   65 1    
    11    5   71 1    
    12    6    7 1    
    13    6   72 1    
    14    6   73 1    
    15    7    8 1    
    16    8    9 1    
    17    8   74 1    
    18    8   75 1    
    19    9   10 ar   
    20    9   14 ar   
    21   10   11 ar   
    22   10   76 1    
    23   11   12 ar   
    24   11   48 1    
    25   12   13 ar   
    26   12   77 1    
    27   13   14 ar   
    28   13   15 1    
    29   14   78 1    
    30   15   16 1    
    31   15   79 1    
    32   15   80 1    
    33   16   17 1    
    34   17   18 1    
    35   17   81 1    
    36   17   82 1    
    37   18   19 1    
    38   18   22 1    
    39   18   83 1    
    40   19   20 am   BACKBONE|DICT|INTERRES
    41   19   21 2    
    42   20   84 1    
    43   20   85 1    
    44   22   23 am   BACKBONE|DICT|INTERRES
    45   22   86 1    
    46   23   24 2    
    47   23   25 1    
    48   25   26 1    
    49   25   27 1    
    50   25   87 1    
    51   26   88 1    
    52   26   89 1    
    53   26   90 1    
    54   27   28 am   BACKBONE|DICT|INTERRES
    55   27   91 1    
    56   28   29 2    
    57   28   30 1    
    58   30   31 1    
    59   30   32 1    
    60   30   92 1    
    61   31   93 1    
    62   31   94 1    
    63   31   95 1    
    64   32   33 am   BACKBONE|DICT|INTERRES
    65   32   96 1    
    66   33   34 2    
    67   33   35 1    
    68   35   36 1    
    69   35   37 1    
    70   35   97 1    
    71   36   98 1    
    72   36   99 1    
    73   36  100 1    
    74   37   38 am   BACKBONE|DICT|INTERRES
    75   37  101 1    
    76   38   39 2    
    77   38   40 1    
    78   40   41 1    
    79   40   42 1    
    80   40  102 1    
    81   41  103 1    
    82   41  104 1    
    83   41  105 1    
    84   42   43 am   BACKBONE|DICT|INTERRES
    85   42  106 1    
    86   43   44 2    
    87   43   45 1    
    88   45   46 1    
    89   45   49 1    
    90   45  107 1    
    91   46   47 1    
    92   46  108 1    
    93   46  109 1    
    94   47   48 1    
    95   48  110 1    
    96   48  111 1    
    97   49   50 am   BACKBONE|DICT|INTERRES
    98   49  112 1    
    99   50   51 2    
   100   50   52 1    
   101   52   53 1    
   102   52   54 1    
   103   52  113 1    
   104   53  114 1    
   105   53  115 1    
   106   53  116 1    
   107   54   55 am   BACKBONE|DICT|INTERRES
   108   54  117 1    
   109   55   56 2    
   110   55   57 1    
   111   57   58 1    
   112   57   59 1    
   113   57  118 1    
   114   58  119 1    
   115   58  120 1    
   116   58  121 1    
   117   59   60 am   BACKBONE|DICT|INTERRES
   118   59  122 1    
   119   60   61 2    
   120   60   62 1    
   121   62   63 1    
   122   62   64 1    
   123   62  123 1    
   124   63  124 1    
   125   63  125 1    
   126   63  126 1    
   127   64   65 am   BACKBONE|DICT|INTERRES
   128   64  127 1    
   129   65   66 2    
@<TRIPOS>SUBSTRUCTURE
     1 UNK         1 GROUP             0       ****    0 ROOT    
