@<TRIPOS>MOLECULE
3R135
127   129    1
SMALL
USER_CHARGES


@<TRIPOS>ATOM
      1 CA        -80.3613   26.1201  -69.2471 C.3       0 UNK        -0.1998 
      2 C         -81.6145   26.6000  -69.9634 C.2       0 UNK         0.4909 
      3 O         -82.4719   27.2274  -69.3411 O.2       0 UNK        -0.5240 
      4 N         -81.7300   26.3039  -71.2620 N.am      1 UNK        -0.4739 
      5 CA        -82.8986   26.6195  -72.0896 C.3       1 UNK         0.0864 
      6 C6        -83.0145   28.1178  -72.4870 C.3       11 UNK        -0.0881 
      7 S7        -81.5782   28.7612  -73.4146 S.3       11 UNK        -0.2682 
      8 C8        -80.7025   29.7195  -72.1394 C.3       11 UNK         0.0289 
      9 C9        -79.2040   29.6421  -72.3724 C.ar      11 UNK        -0.0687 
     10 C10       -78.4345   28.7156  -71.6650 C.ar      11 UNK        -0.0823 
     11 C11       -77.0713   28.5699  -71.9363 C.ar      11 UNK        -0.0830 
     12 C12       -76.4782   29.3856  -72.9050 C.ar      11 UNK        -0.1021 
     13 C13       -77.2266   30.3478  -73.5939 C.ar      11 UNK        -0.0753 
     14 C14       -78.5934   30.4645  -73.3235 C.ar      11 UNK        -0.0933 
     15 C15       -76.5972   31.2275  -74.6720 C.3       11 UNK         0.0166 
     16 S16       -74.9100   31.8008  -74.2650 S.3       11 UNK        -0.2615 
     17 C17       -74.0119   31.4876  -75.8304 C.3       11 UNK        -0.0865 
     18 CA        -72.5313   31.0562  -75.6439 C.3       10 UNK         0.0862 
     19 C         -71.6112   32.2522  -75.2670 C.2       10 UNK         0.5551 
     20 N         -71.2942   33.1109  -76.2269 N.am      10 UNK        -0.7319 
     21 O         -71.2024   32.4249  -74.1196 O.2       10 UNK        -0.5018 
     22 N         -72.4098   29.9203  -74.7205 N.am      10 UNK        -0.4509 
     23 C         -71.3424   29.1190  -74.6231 C.2       10 UNK         0.4899 
     24 O         -70.3715   29.1740  -75.3792 O.2       10 UNK        -0.4839 
     25 CA        -71.3442   28.0878  -73.4840 C.3       9 UNK         0.0222 
     26 CB        -72.2753   28.4557  -72.3111 C.3       9 UNK        -0.1966 
     27 N         -71.7308   26.7830  -74.0150 N.am      9 UNK        -0.4218 
     28 C         -70.8819   25.7926  -74.3176 C.2       9 UNK         0.5020 
     29 O         -69.6616   25.8529  -74.1570 O.2       9 UNK        -0.5274 
     30 CA        -71.4988   24.5009  -74.8792 C.3       8 UNK         0.0270 
     31 CB        -72.1554   23.6796  -73.7570 C.3       8 UNK        -0.1976 
     32 N         -72.4695   24.7465  -75.9482 N.am      8 UNK        -0.4313 
     33 C         -72.1521   25.1891  -77.1740 C.2       8 UNK         0.5041 
     34 O         -70.9989   25.4091  -77.5467 O.2       8 UNK        -0.5577 
     35 CA        -73.3121   25.4184  -78.1586 C.3       7 UNK         0.0284 
     36 CB        -73.7425   24.0951  -78.8116 C.3       7 UNK        -0.1958 
     37 N         -74.4677   26.0555  -77.5268 N.am      7 UNK        -0.4454 
     38 C         -74.4896   27.3214  -77.0886 C.2       7 UNK         0.5089 
     39 O         -73.5716   28.1217  -77.2601 O.2       7 UNK        -0.5125 
     40 CA        -75.7369   27.7668  -76.3057 C.3       6 UNK         0.0408 
     41 CB        -76.8196   28.3032  -77.2544 C.3       6 UNK        -0.1791 
     42 N         -76.3006   26.7082  -75.4662 N.am      6 UNK        -0.4762 
     43 C         -75.6715   26.1512  -74.4208 C.2       6 UNK         0.5007 
     44 O         -74.5438   26.4741  -74.0472 O.2       6 UNK        -0.5032 
     45 CA        -76.4112   24.9994  -73.7167 C.3       5 UNK         0.0783 
     46 C46       -77.5320   25.5271  -72.7855 C.3       11 UNK        -0.0857 
     47 S47       -76.9729   25.8736  -71.0839 S.3       11 UNK        -0.2512 
     48 C48       -76.2269   27.5391  -71.1920 C.3       11 UNK         0.0225 
     49 N         -76.9348   24.0528  -74.7037 N.am      5 UNK        -0.4615 
     50 C         -76.1781   23.2647  -75.4805 C.2       4 UNK         0.5053 
     51 O         -74.9510   23.2148  -75.4110 O.2       4 UNK        -0.5105 
     52 CA        -76.9069   22.4254  -76.5451 C.3       4 UNK         0.0263 
     53 CB        -77.3247   21.0659  -75.9635 C.3       4 UNK        -0.1981 
     54 N         -78.0824   23.1014  -77.1002 N.am      4 UNK        -0.4224 
     55 C         -78.0450   24.2523  -77.7878 C.2       3 UNK         0.4895 
     56 O         -77.0023   24.8257  -78.0992 O.2       3 UNK        -0.5091 
     57 CA        -79.3933   24.9026  -78.1439 C.3       3 UNK         0.0250 
     58 CB        -79.8287   24.4925  -79.5594 C.3       3 UNK        -0.1996 
     59 N         -80.4714   24.6032  -77.1926 N.am      3 UNK        -0.4254 
     60 C         -80.4632   24.9364  -75.8943 C.2       2 UNK         0.5004 
     61 O         -79.5232   25.5082  -75.3349 O.2       2 UNK        -0.5226 
     62 CA        -81.6780   24.4979  -75.0718 C.3       2 UNK         0.0269 
     63 CB        -81.5151   23.0419  -74.5976 C.3       2 UNK        -0.1926 
     64 N         -81.8123   25.3797  -73.9157 N.am      2 UNK        -0.4687 
     65 C         -82.9664   25.6697  -73.2992 C.2       1 UNK         0.5165 
     66 O         -84.0526   25.1917  -73.6307 O.2       1 UNK        -0.5079 
     67 H67       -79.7282   25.5157  -69.8957 H         1 UNK         0.0900 
     68 H68       -79.7779   26.9701  -68.8948 H         1 UNK         0.0900 
     69 H69       -80.6328   25.5136  -68.3835 H         1 UNK         0.0900 
     70 H70       -81.0197   25.7450  -71.7124 H         1 UNK         0.2959 
     71 H71       -83.7816   26.3805  -71.4917 H         1 UNK         0.1079 
     72 H72       -83.1728   28.7259  -71.5954 H         1 UNK         0.0837 
     73 H73       -83.9065   28.2733  -73.0968 H         1 UNK         0.0837 
     74 H74       -81.0401   30.7565  -72.1665 H         1 UNK         0.0685 
     75 H75       -80.9440   29.3403  -71.1455 H         1 UNK         0.0685 
     76 H76       -78.9035   28.0810  -70.9275 H         1 UNK         0.1434 
     77 H77       -75.4291   29.2665  -73.1300 H         1 UNK         0.1329 
     78 H78       -79.1933   31.1773  -73.8729 H         1 UNK         0.1335 
     79 H79       -76.6061   30.6746  -75.6094 H         1 UNK         0.0680 
     80 H80       -77.2127   32.1123  -74.8417 H         1 UNK         0.0680 
     81 H81       -74.5209   30.7028  -76.3897 H         1 UNK         0.1032 
     82 H82       -74.0846   32.3769  -76.4590 H         1 UNK         0.1032 
     83 H83       -72.1832   30.6999  -76.6160 H         1 UNK         0.0461 
     84 H84       -71.6198   32.9828  -77.1724 H         1 UNK         0.3453 
     85 H85       -70.7066   33.8991  -76.0035 H         1 UNK         0.3453 
     86 H86       -73.1461   29.8404  -74.0368 H         1 UNK         0.2984 
     87 H87       -70.3274   28.0500  -73.0879 H         1 UNK         0.0554 
     88 H88       -72.1599   27.7508  -71.4876 H         1 UNK         0.0847 
     89 H89       -73.3244   28.4474  -72.6006 H         1 UNK         0.0847 
     90 H90       -72.0435   29.4471  -71.9190 H         1 UNK         0.0847 
     91 H91       -72.7274   26.6395  -74.1741 H         1 UNK         0.3141 
     92 H92       -70.6866   23.9028  -75.2982 H         1 UNK         0.0743 
     93 H93       -73.0106   24.1980  -73.3220 H         1 UNK         0.0784 
     94 H94       -72.5029   22.7142  -74.1253 H         1 UNK         0.0784 
     95 H95       -71.4474   23.4826  -72.9509 H         1 UNK         0.0784 
     96 H96       -73.4382   24.5207  -75.7441 H         1 UNK         0.3213 
     97 H97       -72.9526   26.0836  -78.9468 H         1 UNK         0.0855 
     98 H98       -74.1098   23.3808  -78.0747 H         1 UNK         0.0814 
     99 H99       -72.9050   23.6267  -79.3301 H         1 UNK         0.0814 
    100 H100      -74.5323   24.2534  -79.5463 H         1 UNK         0.0814 
    101 H101      -75.3164   25.5021  -77.4442 H         1 UNK         0.3105 
    102 H102      -75.4301   28.5753  -75.6409 H         1 UNK         0.0547 
    103 H103      -76.4414   29.1413  -77.8410 H         1 UNK         0.0837 
    104 H104      -77.1555   27.5409  -77.9576 H         1 UNK         0.0837 
    105 H105      -77.6908   28.6583  -76.7034 H         1 UNK         0.0837 
    106 H106      -77.2247   26.3722  -75.7052 H         1 UNK         0.3020 
    107 H107      -75.6774   24.4583  -73.1146 H         1 UNK         0.1245 
    108 H108      -78.3065   24.7655  -72.6814 H         1 UNK         0.0781 
    109 H109      -78.0496   26.3893  -73.2094 H         1 UNK         0.0781 
    110 H110      -75.2448   27.4396  -71.6529 H         1 UNK         0.0836 
    111 H111      -76.0468   27.9042  -70.1802 H         1 UNK         0.0836 
    112 H112      -77.9302   24.1026  -74.8785 H         1 UNK         0.3022 
    113 H113      -76.2063   22.2478  -77.3635 H         1 UNK         0.0747 
    114 H114      -77.7692   20.4271  -76.7269 H         1 UNK         0.0793 
    115 H115      -76.4619   20.5334  -75.5605 H         1 UNK         0.0793 
    116 H116      -78.0472   21.1758  -75.1535 H         1 UNK         0.0793 
    117 H117      -78.9833   22.6923  -76.9016 H         1 UNK         0.3047 
    118 H118      -79.2402   25.9839  -78.1337 H         1 UNK         0.0822 
    119 H119      -80.7297   25.0232  -79.8678 H         1 UNK         0.0807 
    120 H120      -80.0276   23.4222  -79.6281 H         1 UNK         0.0807 
    121 H121      -79.0523   24.7270  -80.2893 H         1 UNK         0.0807 
    122 H122      -81.2764   24.1201  -77.5660 H         1 UNK         0.2946 
    123 H123      -82.5678   24.5845  -75.7001 H         1 UNK         0.1144 
    124 H124      -82.3808   22.7134  -74.0222 H         1 UNK         0.0793 
    125 H125      -80.6317   22.9194  -73.9694 H         1 UNK         0.0793 
    126 H126      -81.4146   22.3596  -75.4425 H         1 UNK         0.0793 
    127 H127      -80.9730   25.8991  -73.6895 H         1 UNK         0.2896 
@<TRIPOS>BOND
     1    1    2 1    
     2    1   67 1    
     3    1   68 1    
     4    1   69 1    
     5    2    3 2    
     6    2    4 am   BACKBONE|DICT|INTERRES
     7    4    5 1    
     8    4   70 1    
     9    5    6 1    
    10    5   65 1    
    11    5   71 1    
    12    6    7 1    
    13    6   72 1    
    14    6   73 1    
    15    7    8 1    
    16    8    9 1    
    17    8   74 1    
    18    8   75 1    
    19    9   10 ar   
    20    9   14 ar   
    21   10   11 ar   
    22   10   76 1    
    23   11   12 ar   
    24   11   48 1    
    25   12   13 ar   
    26   12   77 1    
    27   13   14 ar   
    28   13   15 1    
    29   14   78 1    
    30   15   16 1    
    31   15   79 1    
    32   15   80 1    
    33   16   17 1    
    34   17   18 1    
    35   17   81 1    
    36   17   82 1    
    37   18   19 1    
    38   18   22 1    
    39   18   83 1    
    40   19   20 am   BACKBONE|DICT|INTERRES
    41   19   21 2    
    42   20   84 1    
    43   20   85 1    
    44   22   23 am   BACKBONE|DICT|INTERRES
    45   22   86 1    
    46   23   24 2    
    47   23   25 1    
    48   25   26 1    
    49   25   27 1    
    50   25   87 1    
    51   26   88 1    
    52   26   89 1    
    53   26   90 1    
    54   27   28 am   BACKBONE|DICT|INTERRES
    55   27   91 1    
    56   28   29 2    
    57   28   30 1    
    58   30   31 1    
    59   30   32 1    
    60   30   92 1    
    61   31   93 1    
    62   31   94 1    
    63   31   95 1    
    64   32   33 am   BACKBONE|DICT|INTERRES
    65   32   96 1    
    66   33   34 2    
    67   33   35 1    
    68   35   36 1    
    69   35   37 1    
    70   35   97 1    
    71   36   98 1    
    72   36   99 1    
    73   36  100 1    
    74   37   38 am   BACKBONE|DICT|INTERRES
    75   37  101 1    
    76   38   39 2    
    77   38   40 1    
    78   40   41 1    
    79   40   42 1    
    80   40  102 1    
    81   41  103 1    
    82   41  104 1    
    83   41  105 1    
    84   42   43 am   BACKBONE|DICT|INTERRES
    85   42  106 1    
    86   43   44 2    
    87   43   45 1    
    88   45   46 1    
    89   45   49 1    
    90   45  107 1    
    91   46   47 1    
    92   46  108 1    
    93   46  109 1    
    94   47   48 1    
    95   48  110 1    
    96   48  111 1    
    97   49   50 am   BACKBONE|DICT|INTERRES
    98   49  112 1    
    99   50   51 2    
   100   50   52 1    
   101   52   53 1    
   102   52   54 1    
   103   52  113 1    
   104   53  114 1    
   105   53  115 1    
   106   53  116 1    
   107   54   55 am   BACKBONE|DICT|INTERRES
   108   54  117 1    
   109   55   56 2    
   110   55   57 1    
   111   57   58 1    
   112   57   59 1    
   113   57  118 1    
   114   58  119 1    
   115   58  120 1    
   116   58  121 1    
   117   59   60 am   BACKBONE|DICT|INTERRES
   118   59  122 1    
   119   60   61 2    
   120   60   62 1    
   121   62   63 1    
   122   62   64 1    
   123   62  123 1    
   124   63  124 1    
   125   63  125 1    
   126   63  126 1    
   127   64   65 am   BACKBONE|DICT|INTERRES
   128   64  127 1    
   129   65   66 2    
@<TRIPOS>SUBSTRUCTURE
     1 UNK         1 GROUP             0       ****    0 ROOT    
