@<TRIPOS>MOLECULE
3R135
127   129    1
SMALL
USER_CHARGES


@<TRIPOS>ATOM
      1 CA        -78.5651   29.2469  -75.1180 C.3       0 UNK        -0.1998 
      2 C         -79.9041   28.5520  -74.9264 C.2       0 UNK         0.4909 
      3 O         -80.6615   28.3933  -75.8834 O.2       0 UNK        -0.5240 
      4 N         -80.1978   28.1670  -73.6791 N.am      1 UNK        -0.4739 
      5 CA        -81.5164   27.7502  -73.1828 C.3       1 UNK         0.0864 
      6 C6        -82.5509   28.9094  -73.1468 C.3       11 UNK        -0.0881 
      7 S7        -81.9636   30.4570  -72.3612 S.3       11 UNK        -0.2682 
      8 C8        -81.4236   29.9404  -70.6942 C.3       11 UNK         0.0289 
      9 C9        -79.9525   29.5369  -70.6567 C.ar      11 UNK        -0.0687 
     10 C10       -79.5808   28.2207  -70.3614 C.ar      11 UNK        -0.0823 
     11 C11       -78.2358   27.8401  -70.3595 C.ar      11 UNK        -0.0830 
     12 C12       -77.2547   28.8165  -70.5575 C.ar      11 UNK        -0.1021 
     13 C13       -77.6060   30.1302  -70.8774 C.ar      11 UNK        -0.0753 
     14 C14       -78.9580   30.4845  -70.9213 C.ar      11 UNK        -0.0933 
     15 C15       -76.5287   31.1584  -71.1987 C.3       11 UNK         0.0166 
     16 S16       -75.6549   30.7599  -72.7520 S.3       11 UNK        -0.2615 
     17 C17       -74.3177   29.6588  -72.1669 C.3       11 UNK        -0.0865 
     18 CA        -72.9510   29.9975  -72.8108 C.3       10 UNK         0.0862 
     19 C         -71.8036   29.2462  -72.0847 C.2       10 UNK         0.5551 
     20 N         -71.0080   29.9443  -71.2864 N.am      10 UNK        -0.7319 
     21 O         -71.6644   28.0308  -72.2017 O.2       10 UNK        -0.5018 
     22 N         -72.9483   29.6897  -74.2454 N.am      10 UNK        -0.4509 
     23 C         -72.0495   30.1517  -75.1217 C.2       10 UNK         0.4899 
     24 O         -71.1967   30.9996  -74.8510 O.2       10 UNK        -0.4839 
     25 CA        -72.1188   29.5380  -76.5320 C.3       9 UNK         0.0222 
     26 CB        -71.0584   30.1032  -77.5007 C.3       9 UNK        -0.1966 
     27 N         -72.0660   28.0727  -76.4864 N.am      9 UNK        -0.4218 
     28 C         -71.0806   27.2972  -76.0052 C.2       9 UNK         0.5020 
     29 O         -70.0022   27.7265  -75.5927 O.2       9 UNK        -0.5274 
     30 CA        -71.3332   25.7767  -75.9619 C.3       8 UNK         0.0270 
     31 CB        -71.6250   25.3316  -74.5197 C.3       8 UNK        -0.1976 
     32 N         -72.4279   25.3317  -76.8296 N.am      8 UNK        -0.4313 
     33 C         -72.3768   25.2993  -78.1686 C.2       8 UNK         0.5041 
     34 O         -71.3676   25.5634  -78.8231 O.2       8 UNK        -0.5577 
     35 CA        -73.6840   24.9536  -78.9025 C.3       7 UNK         0.0284 
     36 CB        -73.8841   23.4313  -78.9767 C.3       7 UNK        -0.1958 
     37 N         -74.8620   25.5746  -78.2898 N.am      7 UNK        -0.4454 
     38 C         -75.0784   26.8952  -78.2011 C.2       7 UNK         0.5089 
     39 O         -74.3229   27.7490  -78.6628 O.2       7 UNK        -0.5125 
     40 CA        -76.3206   27.3397  -77.4139 C.3       6 UNK         0.0408 
     41 CB        -77.5929   27.2025  -78.2679 C.3       6 UNK        -0.1791 
     42 N         -76.4584   26.5926  -76.1600 N.am      6 UNK        -0.4762 
     43 C         -75.6582   26.7643  -75.0955 C.2       6 UNK         0.5007 
     44 O         -74.7714   27.6166  -75.0458 O.2       6 UNK        -0.5032 
     45 CA        -75.8545   25.8207  -73.8894 C.3       5 UNK         0.0783 
     46 C46       -76.7927   26.4485  -72.8301 C.3       11 UNK        -0.0857 
     47 S47       -76.4510   25.7843  -71.1636 S.3       11 UNK        -0.2512 
     48 C48       -77.8706   26.3688  -70.1620 C.3       11 UNK         0.0225 
     49 N         -76.3098   24.4878  -74.2923 N.am      5 UNK        -0.4615 
     50 C         -75.5881   23.6234  -75.0167 C.2       4 UNK         0.5053 
     51 O         -74.4353   23.8358  -75.3905 O.2       4 UNK        -0.5105 
     52 CA        -76.3127   22.3432  -75.4595 C.3       4 UNK         0.0263 
     53 CB        -76.3826   21.3262  -74.3097 C.3       4 UNK        -0.1981 
     54 N         -77.6634   22.6198  -75.9599 N.am      4 UNK        -0.4224 
     55 C         -77.9443   23.3633  -77.0368 C.2       3 UNK         0.4895 
     56 O         -77.0782   23.8745  -77.7447 O.2       3 UNK        -0.5091 
     57 CA        -79.4241   23.6211  -77.3736 C.3       3 UNK         0.0250 
     58 CB        -80.0382   22.4119  -78.1053 C.3       3 UNK        -0.1996 
     59 N         -80.2652   24.0547  -76.2443 N.am      3 UNK        -0.4254 
     60 C         -80.6188   23.3641  -75.1509 C.2       2 UNK         0.5004 
     61 O         -80.1827   22.2449  -74.8747 O.2       2 UNK        -0.5226 
     62 CA        -81.6192   24.0495  -74.2099 C.3       2 UNK         0.0269 
     63 CB        -81.8324   23.2753  -72.8932 C.3       2 UNK        -0.1926 
     64 N         -81.2142   25.4240  -73.8988 N.am      2 UNK        -0.4687 
     65 C         -82.0617   26.4602  -73.8325 C.2       1 UNK         0.5165 
     66 O         -83.2349   26.4034  -74.2071 O.2       1 UNK        -0.5079 
     67 H67       -77.7784   28.7681  -74.5387 H         1 UNK         0.0900 
     68 H68       -78.2708   29.2448  -76.1657 H         1 UNK         0.0900 
     69 H69       -78.6369   30.2849  -74.7941 H         1 UNK         0.0900 
     70 H70       -79.5221   28.3553  -72.9507 H         1 UNK         0.2959 
     71 H71       -81.3681   27.4463  -72.1508 H         1 UNK         0.1079 
     72 H72       -83.4556   28.5937  -72.6235 H         1 UNK         0.0837 
     73 H73       -82.8645   29.1583  -74.1623 H         1 UNK         0.0837 
     74 H74       -81.5691   30.7776  -70.0101 H         1 UNK         0.0685 
     75 H75       -82.0672   29.1378  -70.3310 H         1 UNK         0.0685 
     76 H76       -80.3416   27.4814  -70.1521 H         1 UNK         0.1434 
     77 H77       -76.2128   28.5372  -70.5174 H         1 UNK         0.1329 
     78 H78       -79.2425   31.4987  -71.1668 H         1 UNK         0.1335 
     79 H79       -75.8265   31.2370  -70.3680 H         1 UNK         0.0680 
     80 H80       -76.9748   32.1481  -71.3076 H         1 UNK         0.0680 
     81 H81       -74.5890   28.6226  -72.3735 H         1 UNK         0.1032 
     82 H82       -74.2427   29.7397  -71.0812 H         1 UNK         0.1032 
     83 H83       -72.7842   31.0710  -72.6973 H         1 UNK         0.0461 
     84 H84       -70.2687   29.4680  -70.7938 H         1 UNK         0.3453 
     85 H85       -71.1191   30.9408  -71.1813 H         1 UNK         0.3453 
     86 H86       -73.6006   28.9694  -74.5473 H         1 UNK         0.2984 
     87 H87       -73.1006   29.7945  -76.9331 H         1 UNK         0.0554 
     88 H88       -71.1688   31.1826  -77.6107 H         1 UNK         0.0847 
     89 H89       -71.1568   29.6641  -78.4934 H         1 UNK         0.0847 
     90 H90       -70.0433   29.9158  -77.1498 H         1 UNK         0.0847 
     91 H91       -72.9106   27.6090  -76.7948 H         1 UNK         0.3141 
     92 H92       -70.4172   25.2831  -76.2931 H         1 UNK         0.0743 
     93 H93       -70.8025   25.5980  -73.8544 H         1 UNK         0.0784 
     94 H94       -72.5231   25.8096  -74.1277 H         1 UNK         0.0784 
     95 H95       -71.7603   24.2519  -74.4535 H         1 UNK         0.0784 
     96 H96       -73.2712   24.9978  -76.3675 H         1 UNK         0.3213 
     97 H97       -73.6018   25.3373  -79.9217 H         1 UNK         0.0855 
     98 H98       -73.9946   22.9887  -77.9863 H         1 UNK         0.0814 
     99 H99       -73.0324   22.9486  -79.4576 H         1 UNK         0.0814 
    100 H100      -74.7719   23.1764  -79.5558 H         1 UNK         0.0814 
    101 H101      -75.5756   24.9434  -77.9302 H         1 UNK         0.3105 
    102 H102      -76.1981   28.3960  -77.1647 H         1 UNK         0.0547 
    103 H103      -77.5603   27.8902  -79.1137 H         1 UNK         0.0837 
    104 H104      -78.4928   27.4336  -77.6989 H         1 UNK         0.0837 
    105 H105      -77.7084   26.2009  -78.6797 H         1 UNK         0.0837 
    106 H106      -77.1273   25.8375  -76.1481 H         1 UNK         0.3020 
    107 H107      -74.8625   25.7065  -73.4456 H         1 UNK         0.1245 
    108 H108      -77.8417   26.2901  -73.0842 H         1 UNK         0.0781 
    109 H109      -76.6511   27.5282  -72.7879 H         1 UNK         0.0781 
    110 H110      -77.6473   26.2016  -69.1076 H         1 UNK         0.0836 
    111 H111      -78.7268   25.7352  -70.3986 H         1 UNK         0.0836 
    112 H112      -77.2396   24.2189  -74.0089 H         1 UNK         0.3022 
    113 H113      -75.7370   21.9011  -76.2753 H         1 UNK         0.0747 
    114 H114      -75.3863   21.1027  -73.9254 H         1 UNK         0.0793 
    115 H115      -76.9804   21.6952  -73.4753 H         1 UNK         0.0793 
    116 H116      -76.8194   20.3843  -74.6421 H         1 UNK         0.0793 
    117 H117      -78.4539   22.2534  -75.4315 H         1 UNK         0.3047 
    118 H118      -79.4355   24.4558  -78.0762 H         1 UNK         0.0822 
    119 H119      -81.0555   22.6233  -78.4347 H         1 UNK         0.0807 
    120 H120      -80.0684   21.5220  -77.4758 H         1 UNK         0.0807 
    121 H121      -79.4573   22.1590  -78.9934 H         1 UNK         0.0807 
    122 H122      -80.6577   24.9823  -76.3385 H         1 UNK         0.2946 
    123 H123      -82.5685   24.0502  -74.7510 H         1 UNK         0.1144 
    124 H124      -80.9135   23.2136  -72.3090 H         1 UNK         0.0793 
    125 H125      -82.1674   22.2551  -73.0860 H         1 UNK         0.0793 
    126 H126      -82.5929   23.7495  -72.2727 H         1 UNK         0.0793 
    127 H127      -80.2557   25.5608  -73.6121 H         1 UNK         0.2896 
@<TRIPOS>BOND
     1    1    2 1    
     2    1   67 1    
     3    1   68 1    
     4    1   69 1    
     5    2    3 2    
     6    2    4 am   BACKBONE|DICT|INTERRES
     7    4    5 1    
     8    4   70 1    
     9    5    6 1    
    10    5   65 1    
    11    5   71 1    
    12    6    7 1    
    13    6   72 1    
    14    6   73 1    
    15    7    8 1    
    16    8    9 1    
    17    8   74 1    
    18    8   75 1    
    19    9   10 ar   
    20    9   14 ar   
    21   10   11 ar   
    22   10   76 1    
    23   11   12 ar   
    24   11   48 1    
    25   12   13 ar   
    26   12   77 1    
    27   13   14 ar   
    28   13   15 1    
    29   14   78 1    
    30   15   16 1    
    31   15   79 1    
    32   15   80 1    
    33   16   17 1    
    34   17   18 1    
    35   17   81 1    
    36   17   82 1    
    37   18   19 1    
    38   18   22 1    
    39   18   83 1    
    40   19   20 am   BACKBONE|DICT|INTERRES
    41   19   21 2    
    42   20   84 1    
    43   20   85 1    
    44   22   23 am   BACKBONE|DICT|INTERRES
    45   22   86 1    
    46   23   24 2    
    47   23   25 1    
    48   25   26 1    
    49   25   27 1    
    50   25   87 1    
    51   26   88 1    
    52   26   89 1    
    53   26   90 1    
    54   27   28 am   BACKBONE|DICT|INTERRES
    55   27   91 1    
    56   28   29 2    
    57   28   30 1    
    58   30   31 1    
    59   30   32 1    
    60   30   92 1    
    61   31   93 1    
    62   31   94 1    
    63   31   95 1    
    64   32   33 am   BACKBONE|DICT|INTERRES
    65   32   96 1    
    66   33   34 2    
    67   33   35 1    
    68   35   36 1    
    69   35   37 1    
    70   35   97 1    
    71   36   98 1    
    72   36   99 1    
    73   36  100 1    
    74   37   38 am   BACKBONE|DICT|INTERRES
    75   37  101 1    
    76   38   39 2    
    77   38   40 1    
    78   40   41 1    
    79   40   42 1    
    80   40  102 1    
    81   41  103 1    
    82   41  104 1    
    83   41  105 1    
    84   42   43 am   BACKBONE|DICT|INTERRES
    85   42  106 1    
    86   43   44 2    
    87   43   45 1    
    88   45   46 1    
    89   45   49 1    
    90   45  107 1    
    91   46   47 1    
    92   46  108 1    
    93   46  109 1    
    94   47   48 1    
    95   48  110 1    
    96   48  111 1    
    97   49   50 am   BACKBONE|DICT|INTERRES
    98   49  112 1    
    99   50   51 2    
   100   50   52 1    
   101   52   53 1    
   102   52   54 1    
   103   52  113 1    
   104   53  114 1    
   105   53  115 1    
   106   53  116 1    
   107   54   55 am   BACKBONE|DICT|INTERRES
   108   54  117 1    
   109   55   56 2    
   110   55   57 1    
   111   57   58 1    
   112   57   59 1    
   113   57  118 1    
   114   58  119 1    
   115   58  120 1    
   116   58  121 1    
   117   59   60 am   BACKBONE|DICT|INTERRES
   118   59  122 1    
   119   60   61 2    
   120   60   62 1    
   121   62   63 1    
   122   62   64 1    
   123   62  123 1    
   124   63  124 1    
   125   63  125 1    
   126   63  126 1    
   127   64   65 am   BACKBONE|DICT|INTERRES
   128   64  127 1    
   129   65   66 2    
@<TRIPOS>SUBSTRUCTURE
     1 UNK         1 GROUP             0       ****    0 ROOT    
