@<TRIPOS>MOLECULE
3R135
127   129    1
SMALL
USER_CHARGES


@<TRIPOS>ATOM
      1 CA        -81.1454   23.8518  -71.9351 C.3       0 UNK        -0.1998 
      2 C         -81.5674   24.8280  -73.0232 C.2       0 UNK         0.4909 
      3 O         -82.3253   24.4570  -73.9218 O.2       0 UNK        -0.5240 
      4 N         -81.0944   26.0782  -72.9437 N.am      1 UNK        -0.4739 
      5 CA        -81.4062   27.1510  -73.8923 C.3       1 UNK         0.0864 
      6 C6        -81.0261   28.5495  -73.3471 C.3       11 UNK        -0.0881 
      7 S7        -81.9293   28.9298  -71.8049 S.3       11 UNK        -0.2682 
      8 C8        -80.9258   30.2727  -71.0798 C.3       11 UNK         0.0289 
      9 C9        -79.4679   29.9029  -70.8128 C.ar      11 UNK        -0.0687 
     10 C10       -79.1075   28.6316  -70.3479 C.ar      11 UNK        -0.0823 
     11 C11       -77.7627   28.3006  -70.1637 C.ar      11 UNK        -0.0830 
     12 C12       -76.7803   29.2729  -70.3618 C.ar      11 UNK        -0.1021 
     13 C13       -77.1205   30.5381  -70.8438 C.ar      11 UNK        -0.0753 
     14 C14       -78.4665   30.8486  -71.0604 C.ar      11 UNK        -0.0933 
     15 C15       -76.0317   31.5487  -71.1773 C.3       11 UNK         0.0166 
     16 S16       -75.1703   31.1106  -72.7267 S.3       11 UNK        -0.2615 
     17 C17       -73.9432   29.8864  -72.1449 C.3       11 UNK        -0.0865 
     18 CA        -72.5659   30.0564  -72.8379 C.3       10 UNK         0.0862 
     19 C         -71.4314   29.3134  -72.0672 C.2       10 UNK         0.5551 
     20 N         -70.5825   28.5161  -72.7048 N.am      10 UNK        -0.7319 
     21 O         -71.3071   29.4757  -70.8558 O.2       10 UNK        -0.5018 
     22 N         -72.6442   29.7130  -74.2665 N.am      10 UNK        -0.4509 
     23 C         -71.8784   30.2493  -75.2239 C.2       10 UNK         0.4899 
     24 O         -71.0838   31.1714  -75.0312 O.2       10 UNK        -0.4839 
     25 CA        -72.0093   29.6187  -76.6244 C.3       9 UNK         0.0222 
     26 CB        -70.9361   30.1166  -77.6151 C.3       9 UNK        -0.1966 
     27 N         -72.0305   28.1510  -76.5821 N.am      9 UNK        -0.4218 
     28 C         -71.1035   27.3325  -76.0582 C.2       9 UNK         0.5020 
     29 O         -70.0558   27.7301  -75.5472 O.2       9 UNK        -0.5274 
     30 CA        -71.3954   25.8187  -76.0507 C.3       8 UNK         0.0270 
     31 CB        -71.5314   25.3119  -74.6043 C.3       8 UNK        -0.1976 
     32 N         -72.6041   25.4507  -76.7900 N.am      8 UNK        -0.4313 
     33 C         -72.7076   25.3870  -78.1237 C.2       8 UNK         0.5041 
     34 O         -71.7597   25.5398  -78.8945 O.2       8 UNK        -0.5577 
     35 CA        -74.1221   25.1742  -78.6906 C.3       7 UNK         0.0284 
     36 CB        -74.4892   23.6816  -78.7195 C.3       7 UNK        -0.1958 
     37 N         -75.1398   25.9263  -77.9474 N.am      7 UNK        -0.4454 
     38 C         -75.2228   27.2649  -77.9193 C.2       7 UNK         0.5089 
     39 O         -74.4673   28.0092  -78.5425 O.2       7 UNK        -0.5125 
     40 CA        -76.3029   27.8838  -77.0176 C.3       6 UNK         0.0408 
     41 CB        -77.6150   28.0446  -77.7981 C.3       6 UNK        -0.1791 
     42 N         -76.5412   27.1121  -75.7951 N.am      6 UNK        -0.4762 
     43 C         -75.6509   26.9827  -74.7994 C.2       6 UNK         0.5007 
     44 O         -74.5462   27.5300  -74.7916 O.2       6 UNK        -0.5032 
     45 CA        -76.0480   26.0515  -73.6370 C.3       5 UNK         0.0783 
     46 C46       -77.1133   26.7287  -72.7462 C.3       11 UNK        -0.0857 
     47 S47       -77.6225   25.7476  -71.2847 S.3       11 UNK        -0.2512 
     48 C48       -77.3497   26.8671  -69.8602 C.3       11 UNK         0.0225 
     49 N         -76.4605   24.7254  -74.1077 N.am      5 UNK        -0.4615 
     50 C         -75.6913   23.8690  -74.7890 C.2       4 UNK         0.5053 
     51 O         -74.5637   24.1459  -75.1937 O.2       4 UNK        -0.5105 
     52 CA        -76.2514   22.4620  -75.0643 C.3       4 UNK         0.0263 
     53 CB        -76.3196   21.6319  -73.7667 C.3       4 UNK        -0.1981 
     54 N         -77.5276   22.4273  -75.7928 N.am      4 UNK        -0.4224 
     55 C         -78.7223   22.8817  -75.3934 C.2       3 UNK         0.4895 
     56 O         -78.9219   23.4571  -74.3231 O.2       3 UNK        -0.5091 
     57 CA        -79.9043   22.6204  -76.3350 C.3       3 UNK         0.0250 
     58 CB        -80.8725   21.5972  -75.7191 C.3       3 UNK        -0.1996 
     59 N         -80.6160   23.8707  -76.5806 N.am      3 UNK        -0.4254 
     60 C         -80.2844   24.7491  -77.5370 C.2       2 UNK         0.5004 
     61 O         -79.3957   24.5547  -78.3670 O.2       2 UNK        -0.5226 
     62 CA        -81.0665   26.0753  -77.5727 C.3       2 UNK         0.0269 
     63 CB        -82.2648   25.9683  -78.5292 C.3       2 UNK        -0.1926 
     64 N         -81.5361   26.5043  -76.2528 N.am      2 UNK        -0.4687 
     65 C         -80.7289   26.8611  -75.2444 C.2       1 UNK         0.5165 
     66 O         -79.5025   26.9305  -75.3444 O.2       1 UNK        -0.5079 
     67 H67       -82.0076   23.5621  -71.3356 H         1 UNK         0.0900 
     68 H68       -80.7219   22.9524  -72.3807 H         1 UNK         0.0900 
     69 H69       -80.3959   24.2827  -71.2717 H         1 UNK         0.0900 
     70 H70       -80.4471   26.3209  -72.2082 H         1 UNK         0.2959 
     71 H71       -82.4877   27.1475  -74.0470 H         1 UNK         0.1079 
     72 H72       -81.2618   29.3252  -74.0782 H         1 UNK         0.0837 
     73 H73       -79.9505   28.6095  -73.1721 H         1 UNK         0.0837 
     74 H74       -81.3830   30.5794  -70.1384 H         1 UNK         0.0685 
     75 H75       -80.9837   31.1346  -71.7465 H         1 UNK         0.0685 
     76 H76       -79.8659   27.8792  -70.1826 H         1 UNK         0.1434 
     77 H77       -75.7421   29.0169  -70.2115 H         1 UNK         0.1329 
     78 H78       -78.7335   31.8258  -71.4394 H         1 UNK         0.1335 
     79 H79       -75.3226   31.6278  -70.3521 H         1 UNK         0.0680 
     80 H80       -76.4661   32.5425  -71.2956 H         1 UNK         0.0680 
     81 H81       -74.3344   28.8808  -72.3070 H         1 UNK         0.1032 
     82 H82       -73.8340   30.0004  -71.0656 H         1 UNK         0.1032 
     83 H83       -72.3021   31.1129  -72.7606 H         1 UNK         0.0461 
     84 H84       -69.8571   28.0583  -72.1769 H         1 UNK         0.3453 
     85 H85       -70.6151   28.4018  -73.7108 H         1 UNK         0.3453 
     86 H86       -73.2690   28.9474  -74.5064 H         1 UNK         0.2984 
     87 H87       -72.9827   29.9273  -77.0079 H         1 UNK         0.0554 
     88 H88       -70.9866   31.1994  -77.7352 H         1 UNK         0.0847 
     89 H89       -71.0743   29.6753  -78.6021 H         1 UNK         0.0847 
     90 H90       -69.9284   29.8733  -77.2766 H         1 UNK         0.0847 
     91 H91       -72.8648   27.7248  -76.9640 H         1 UNK         0.3141 
     92 H92       -70.5406   25.3194  -76.5114 H         1 UNK         0.0743 
     93 H93       -70.6282   25.5162  -74.0277 H         1 UNK         0.0784 
     94 H94       -72.3641   25.7915  -74.0877 H         1 UNK         0.0784 
     95 H95       -71.6966   24.2347  -74.5751 H         1 UNK         0.0784 
     96 H96       -73.4215   25.2209  -76.2273 H         1 UNK         0.3213 
     97 H97       -74.1233   25.5421  -79.7192 H         1 UNK         0.0855 
     98 H98       -74.4896   23.2412  -77.7228 H         1 UNK         0.0814 
     99 H99       -73.7729   23.1195  -79.3202 H         1 UNK         0.0814 
    100 H100      -75.4741   23.5226  -79.1590 H         1 UNK         0.0814 
    101 H101      -75.7887   25.3968  -77.3842 H         1 UNK         0.3105 
    102 H102      -75.9597   28.8781  -76.7234 H         1 UNK         0.0547 
    103 H103      -78.0171   27.0790  -78.1051 H         1 UNK         0.0837 
    104 H104      -78.3720   28.5548  -77.2027 H         1 UNK         0.0837 
    105 H105      -77.4625   28.6367  -78.7014 H         1 UNK         0.0837 
    106 H106      -77.4627   26.6987  -75.6857 H         1 UNK         0.3020 
    107 H107      -75.1507   25.9059  -73.0315 H         1 UNK         0.1245 
    108 H108      -78.0173   26.9381  -73.3154 H         1 UNK         0.0781 
    109 H109      -76.7321   27.6999  -72.4404 H         1 UNK         0.0781 
    110 H110      -76.2972   26.8206  -69.5763 H         1 UNK         0.0836 
    111 H111      -77.9131   26.4978  -69.0023 H         1 UNK         0.0836 
    112 H112      -77.4027   24.4230  -73.8691 H         1 UNK         0.3022 
    113 H113      -75.5314   21.9683  -75.7190 H         1 UNK         0.0747 
    114 H114      -76.6198   20.6040  -73.9700 H         1 UNK         0.0793 
    115 H115      -75.3449   21.5938  -73.2783 H         1 UNK         0.0793 
    116 H116      -77.0245   22.0494  -73.0468 H         1 UNK         0.0793 
    117 H117      -77.4789   21.9934  -76.7045 H         1 UNK         0.3047 
    118 H118      -79.5382   22.2155  -77.2811 H         1 UNK         0.0822 
    119 H119      -81.7095   21.3924  -76.3867 H         1 UNK         0.0807 
    120 H120      -81.2805   21.9461  -74.7695 H         1 UNK         0.0807 
    121 H121      -80.3687   20.6486  -75.5286 H         1 UNK         0.0807 
    122 H122      -81.3014   24.1415  -75.8846 H         1 UNK         0.2946 
    123 H123      -80.3925   26.8437  -77.9558 H         1 UNK         0.1144 
    124 H124      -82.7816   26.9232  -78.6272 H         1 UNK         0.0793 
    125 H125      -82.9887   25.2264  -78.1895 H         1 UNK         0.0793 
    126 H126      -81.9405   25.6736  -79.5284 H         1 UNK         0.0793 
    127 H127      -82.5298   26.4386  -76.0823 H         1 UNK         0.2896 
@<TRIPOS>BOND
     1    1    2 1    
     2    1   67 1    
     3    1   68 1    
     4    1   69 1    
     5    2    3 2    
     6    2    4 am   BACKBONE|DICT|INTERRES
     7    4    5 1    
     8    4   70 1    
     9    5    6 1    
    10    5   65 1    
    11    5   71 1    
    12    6    7 1    
    13    6   72 1    
    14    6   73 1    
    15    7    8 1    
    16    8    9 1    
    17    8   74 1    
    18    8   75 1    
    19    9   10 ar   
    20    9   14 ar   
    21   10   11 ar   
    22   10   76 1    
    23   11   12 ar   
    24   11   48 1    
    25   12   13 ar   
    26   12   77 1    
    27   13   14 ar   
    28   13   15 1    
    29   14   78 1    
    30   15   16 1    
    31   15   79 1    
    32   15   80 1    
    33   16   17 1    
    34   17   18 1    
    35   17   81 1    
    36   17   82 1    
    37   18   19 1    
    38   18   22 1    
    39   18   83 1    
    40   19   20 am   BACKBONE|DICT|INTERRES
    41   19   21 2    
    42   20   84 1    
    43   20   85 1    
    44   22   23 am   BACKBONE|DICT|INTERRES
    45   22   86 1    
    46   23   24 2    
    47   23   25 1    
    48   25   26 1    
    49   25   27 1    
    50   25   87 1    
    51   26   88 1    
    52   26   89 1    
    53   26   90 1    
    54   27   28 am   BACKBONE|DICT|INTERRES
    55   27   91 1    
    56   28   29 2    
    57   28   30 1    
    58   30   31 1    
    59   30   32 1    
    60   30   92 1    
    61   31   93 1    
    62   31   94 1    
    63   31   95 1    
    64   32   33 am   BACKBONE|DICT|INTERRES
    65   32   96 1    
    66   33   34 2    
    67   33   35 1    
    68   35   36 1    
    69   35   37 1    
    70   35   97 1    
    71   36   98 1    
    72   36   99 1    
    73   36  100 1    
    74   37   38 am   BACKBONE|DICT|INTERRES
    75   37  101 1    
    76   38   39 2    
    77   38   40 1    
    78   40   41 1    
    79   40   42 1    
    80   40  102 1    
    81   41  103 1    
    82   41  104 1    
    83   41  105 1    
    84   42   43 am   BACKBONE|DICT|INTERRES
    85   42  106 1    
    86   43   44 2    
    87   43   45 1    
    88   45   46 1    
    89   45   49 1    
    90   45  107 1    
    91   46   47 1    
    92   46  108 1    
    93   46  109 1    
    94   47   48 1    
    95   48  110 1    
    96   48  111 1    
    97   49   50 am   BACKBONE|DICT|INTERRES
    98   49  112 1    
    99   50   51 2    
   100   50   52 1    
   101   52   53 1    
   102   52   54 1    
   103   52  113 1    
   104   53  114 1    
   105   53  115 1    
   106   53  116 1    
   107   54   55 am   BACKBONE|DICT|INTERRES
   108   54  117 1    
   109   55   56 2    
   110   55   57 1    
   111   57   58 1    
   112   57   59 1    
   113   57  118 1    
   114   58  119 1    
   115   58  120 1    
   116   58  121 1    
   117   59   60 am   BACKBONE|DICT|INTERRES
   118   59  122 1    
   119   60   61 2    
   120   60   62 1    
   121   62   63 1    
   122   62   64 1    
   123   62  123 1    
   124   63  124 1    
   125   63  125 1    
   126   63  126 1    
   127   64   65 am   BACKBONE|DICT|INTERRES
   128   64  127 1    
   129   65   66 2    
@<TRIPOS>SUBSTRUCTURE
     1 UNK         1 GROUP             0       ****    0 ROOT    
