@<TRIPOS>MOLECULE
3R135
127   129    1
SMALL
USER_CHARGES


@<TRIPOS>ATOM
      1 CA        -80.4730   21.1570  -70.7082 C.3       0 UNK        -0.1998 
      2 C         -81.4517   22.2201  -71.1846 C.2       0 UNK         0.4909 
      3 O         -82.6257   21.9182  -71.4047 O.2       0 UNK        -0.5240 
      4 N         -80.9781   23.4627  -71.3349 N.am      1 UNK        -0.4739 
      5 CA        -81.7364   24.5950  -71.8770 C.3       1 UNK         0.0864 
      6 C6        -81.1782   25.9461  -71.3552 C.3       11 UNK        -0.0881 
      7 S7        -79.4294   26.2580  -71.7727 S.3       11 UNK        -0.2682 
      8 C8        -79.0936   27.7262  -70.7513 C.3       11 UNK         0.0289 
      9 C9        -78.1861   28.6901  -71.4952 C.ar      11 UNK        -0.0687 
     10 C10       -78.7178   29.4838  -72.5130 C.ar      11 UNK        -0.0823 
     11 C11       -77.8930   30.3311  -73.2551 C.ar      11 UNK        -0.0830 
     12 C12       -76.5309   30.4055  -72.9526 C.ar      11 UNK        -0.1021 
     13 C13       -75.9885   29.6298  -71.9225 C.ar      11 UNK        -0.0753 
     14 C14       -76.8221   28.7702  -71.1980 C.ar      11 UNK        -0.0933 
     15 C15       -74.4933   29.6615  -71.6401 C.3       11 UNK         0.0166 
     16 S16       -73.8453   31.3459  -71.3935 S.3       11 UNK        -0.2615 
     17 C17       -72.0644   30.9858  -71.2130 C.3       11 UNK        -0.0865 
     18 CA        -71.2452   31.2038  -72.5145 C.3       10 UNK         0.0862 
     19 C         -69.7316   30.9638  -72.2332 C.2       10 UNK         0.5551 
     20 N         -69.1344   29.8687  -72.6918 N.am      10 UNK        -0.7319 
     21 O         -69.0924   31.7878  -71.5839 O.2       10 UNK        -0.5018 
     22 N         -71.7782   30.4175  -73.6386 N.am      10 UNK        -0.4509 
     23 C         -71.4212   30.5545  -74.9217 C.2       10 UNK         0.4899 
     24 O         -70.7119   31.4739  -75.3333 O.2       10 UNK        -0.4839 
     25 CA        -71.9347   29.4865  -75.9139 C.3       9 UNK         0.0222 
     26 CB        -70.9029   29.1801  -77.0191 C.3       9 UNK        -0.1966 
     27 N         -72.4000   28.2313  -75.3015 N.am      9 UNK        -0.4218 
     28 C         -71.7063   27.3992  -74.5066 C.2       9 UNK         0.5020 
     29 O         -70.5613   27.6218  -74.1089 O.2       9 UNK        -0.5274 
     30 CA        -72.4175   26.1133  -74.0567 C.3       8 UNK         0.0270 
     31 CB        -73.3968   26.3949  -72.9060 C.3       8 UNK        -0.1976 
     32 N         -73.1275   25.4476  -75.1489 N.am      8 UNK        -0.4313 
     33 C         -72.5288   24.7724  -76.1400 C.2       8 UNK         0.5041 
     34 O         -71.3096   24.6237  -76.2335 O.2       8 UNK        -0.5577 
     35 CA        -73.4454   24.1525  -77.2068 C.3       7 UNK         0.0284 
     36 CB        -74.1173   22.8744  -76.6782 C.3       7 UNK        -0.1958 
     37 N         -74.4620   25.0968  -77.6720 N.am      7 UNK        -0.4454 
     38 C         -74.2063   26.1475  -78.4641 C.2       7 UNK         0.5089 
     39 O         -73.0974   26.3999  -78.9354 O.2       7 UNK        -0.5125 
     40 CA        -75.3865   27.0785  -78.7879 C.3       6 UNK         0.0408 
     41 CB        -76.0813   26.6363  -80.0851 C.3       6 UNK        -0.1791 
     42 N         -76.3747   27.1529  -77.7103 N.am      6 UNK        -0.4762 
     43 C         -76.1618   27.7420  -76.5239 C.2       6 UNK         0.5007 
     44 O         -75.0920   28.2546  -76.1941 O.2       6 UNK        -0.5032 
     45 CA        -77.3299   27.6952  -75.5164 C.3       5 UNK         0.0783 
     46 C46       -78.4626   28.6866  -75.9030 C.3       11 UNK        -0.0857 
     47 S47       -77.9316   30.4353  -76.0188 S.3       11 UNK        -0.2512 
     48 C48       -78.4672   31.1213  -74.4192 C.3       11 UNK         0.0225 
     49 N         -77.8480   26.3301  -75.3630 N.am      5 UNK        -0.4615 
     50 C         -77.1144   25.2510  -75.0396 C.2       4 UNK         0.5053 
     51 O         -75.9285   25.3069  -74.7165 O.2       4 UNK        -0.5105 
     52 CA        -77.7692   23.8617  -75.1674 C.3       4 UNK         0.0263 
     53 CB        -78.0583   23.2560  -73.7868 C.3       4 UNK        -0.1981 
     54 N         -78.9820   23.8550  -75.9901 N.am      4 UNK        -0.4224 
     55 C         -78.9947   24.1230  -77.3066 C.2       3 UNK         0.4895 
     56 O         -77.9730   24.3300  -77.9637 O.2       3 UNK        -0.5091 
     57 CA        -80.3600   24.2295  -78.0113 C.3       3 UNK         0.0250 
     58 CB        -80.6431   22.9545  -78.8216 C.3       3 UNK        -0.1996 
     59 N         -81.4947   24.4936  -77.1207 N.am      3 UNK        -0.4254 
     60 C         -81.6407   25.5617  -76.3227 C.2       2 UNK         0.5004 
     61 O         -80.8102   26.4671  -76.2346 O.2       2 UNK        -0.5226 
     62 CA        -82.9031   25.6099  -75.4368 C.3       2 UNK         0.0269 
     63 CB        -83.9880   24.5809  -75.8306 C.3       2 UNK        -0.1926 
     64 N         -82.5925   25.4810  -74.0055 N.am      2 UNK        -0.4687 
     65 C         -81.8498   24.5269  -73.4205 C.2       1 UNK         0.5165 
     66 O         -81.2838   23.6266  -74.0496 O.2       1 UNK        -0.5079 
     67 H67       -80.8167   20.7225  -69.7700 H         1 UNK         0.0900 
     68 H68       -79.4748   21.5645  -70.5484 H         1 UNK         0.0900 
     69 H69       -80.3983   20.3597  -71.4472 H         1 UNK         0.0900 
     70 H70       -80.0014   23.6508  -71.1599 H         1 UNK         0.2959 
     71 H71       -82.7601   24.5103  -71.5047 H         1 UNK         0.1079 
     72 H72       -81.7773   26.7837  -71.7162 H         1 UNK         0.0837 
     73 H73       -81.2736   25.9707  -70.2682 H         1 UNK         0.0837 
     74 H74       -78.6455   27.4145  -69.8066 H         1 UNK         0.0685 
     75 H75       -80.0255   28.2349  -70.4996 H         1 UNK         0.0685 
     76 H76       -79.7700   29.4076  -72.7522 H         1 UNK         0.1434 
     77 H77       -75.8872   31.0470  -73.5393 H         1 UNK         0.1329 
     78 H78       -76.4075   28.1458  -70.4184 H         1 UNK         0.1335 
     79 H79       -73.9825   29.2071  -72.4867 H         1 UNK         0.0680 
     80 H80       -74.2527   29.0577  -70.7636 H         1 UNK         0.0680 
     81 H81       -71.6854   31.6365  -70.4222 H         1 UNK         0.1032 
     82 H82       -71.9327   29.9672  -70.8424 H         1 UNK         0.1032 
     83 H83       -71.3424   32.2553  -72.7916 H         1 UNK         0.0461 
     84 H84       -69.6542   29.1730  -73.2176 H         1 UNK         0.3453 
     85 H85       -68.1551   29.7258  -72.5042 H         1 UNK         0.3453 
     86 H86       -72.3598   29.6326  -73.3956 H         1 UNK         0.2984 
     87 H87       -72.8108   29.9245  -76.3942 H         1 UNK         0.0554 
     88 H88       -70.6502   30.0776  -77.5849 H         1 UNK         0.0847 
     89 H89       -71.2908   28.4504  -77.7304 H         1 UNK         0.0847 
     90 H90       -69.9754   28.7836  -76.6047 H         1 UNK         0.0847 
     91 H91       -73.3592   27.9864  -75.5426 H         1 UNK         0.3141 
     92 H92       -71.6518   25.4298  -73.6831 H         1 UNK         0.0743 
     93 H93       -72.9036   26.9202  -72.0871 H         1 UNK         0.0784 
     94 H94       -74.2425   27.0004  -73.2343 H         1 UNK         0.0784 
     95 H95       -73.7992   25.4673  -72.4985 H         1 UNK         0.0784 
     96 H96       -74.1460   25.4767  -75.1156 H         1 UNK         0.3213 
     97 H97       -72.8251   23.8757  -78.0624 H         1 UNK         0.0855 
     98 H98       -74.6920   23.0609  -75.7713 H         1 UNK         0.0814 
     99 H99       -73.3688   22.1197  -76.4336 H         1 UNK         0.0814 
    100 H100      -74.7868   22.4382  -77.4198 H         1 UNK         0.0814 
    101 H101      -75.4077   24.9681  -77.3406 H         1 UNK         0.3105 
    102 H102      -74.9824   28.0813  -78.9430 H         1 UNK         0.0547 
    103 H103      -76.5235   25.6437  -79.9891 H         1 UNK         0.0837 
    104 H104      -76.8721   27.3305  -80.3694 H         1 UNK         0.0837 
    105 H105      -75.3723   26.5981  -80.9133 H         1 UNK         0.0837 
    106 H106      -77.2598   26.6914  -77.8725 H         1 UNK         0.3020 
    107 H107      -76.9273   27.9873  -74.5446 H         1 UNK         0.1245 
    108 H108      -79.2833   28.6113  -75.1885 H         1 UNK         0.0781 
    109 H109      -78.8945   28.4083  -76.8660 H         1 UNK         0.0781 
    110 H110      -78.1431   32.1607  -74.3494 H         1 UNK         0.0836 
    111 H111      -79.5577   31.1366  -74.3823 H         1 UNK         0.0836 
    112 H112      -78.8241   26.1989  -75.6066 H         1 UNK         0.3022 
    113 H113      -77.0452   23.2134  -75.6634 H         1 UNK         0.0747 
    114 H114      -77.1465   23.1874  -73.1919 H         1 UNK         0.0793 
    115 H115      -78.4706   22.2503  -73.8700 H         1 UNK         0.0793 
    116 H116      -78.7659   23.8618  -73.2257 H         1 UNK         0.0793 
    117 H117      -79.8627   23.7185  -75.5015 H         1 UNK         0.3047 
    118 H118      -80.2922   25.0689  -78.7064 H         1 UNK         0.0822 
    119 H119      -79.8296   22.7453  -79.5181 H         1 UNK         0.0807 
    120 H120      -81.5541   23.0521  -79.4125 H         1 UNK         0.0807 
    121 H121      -80.7513   22.0820  -78.1759 H         1 UNK         0.0807 
    122 H122      -82.2144   23.7861  -77.0914 H         1 UNK         0.2946 
    123 H123      -83.3256   26.6061  -75.5799 H         1 UNK         0.1144 
    124 H124      -84.2660   24.6782  -76.8811 H         1 UNK         0.0793 
    125 H125      -84.8974   24.7350  -75.2494 H         1 UNK         0.0793 
    126 H126      -83.6653   23.5528  -75.6610 H         1 UNK         0.0793 
    127 H127      -82.9890   26.2005  -73.4173 H         1 UNK         0.2896 
@<TRIPOS>BOND
     1    1    2 1    
     2    1   67 1    
     3    1   68 1    
     4    1   69 1    
     5    2    3 2    
     6    2    4 am   BACKBONE|DICT|INTERRES
     7    4    5 1    
     8    4   70 1    
     9    5    6 1    
    10    5   65 1    
    11    5   71 1    
    12    6    7 1    
    13    6   72 1    
    14    6   73 1    
    15    7    8 1    
    16    8    9 1    
    17    8   74 1    
    18    8   75 1    
    19    9   10 ar   
    20    9   14 ar   
    21   10   11 ar   
    22   10   76 1    
    23   11   12 ar   
    24   11   48 1    
    25   12   13 ar   
    26   12   77 1    
    27   13   14 ar   
    28   13   15 1    
    29   14   78 1    
    30   15   16 1    
    31   15   79 1    
    32   15   80 1    
    33   16   17 1    
    34   17   18 1    
    35   17   81 1    
    36   17   82 1    
    37   18   19 1    
    38   18   22 1    
    39   18   83 1    
    40   19   20 am   BACKBONE|DICT|INTERRES
    41   19   21 2    
    42   20   84 1    
    43   20   85 1    
    44   22   23 am   BACKBONE|DICT|INTERRES
    45   22   86 1    
    46   23   24 2    
    47   23   25 1    
    48   25   26 1    
    49   25   27 1    
    50   25   87 1    
    51   26   88 1    
    52   26   89 1    
    53   26   90 1    
    54   27   28 am   BACKBONE|DICT|INTERRES
    55   27   91 1    
    56   28   29 2    
    57   28   30 1    
    58   30   31 1    
    59   30   32 1    
    60   30   92 1    
    61   31   93 1    
    62   31   94 1    
    63   31   95 1    
    64   32   33 am   BACKBONE|DICT|INTERRES
    65   32   96 1    
    66   33   34 2    
    67   33   35 1    
    68   35   36 1    
    69   35   37 1    
    70   35   97 1    
    71   36   98 1    
    72   36   99 1    
    73   36  100 1    
    74   37   38 am   BACKBONE|DICT|INTERRES
    75   37  101 1    
    76   38   39 2    
    77   38   40 1    
    78   40   41 1    
    79   40   42 1    
    80   40  102 1    
    81   41  103 1    
    82   41  104 1    
    83   41  105 1    
    84   42   43 am   BACKBONE|DICT|INTERRES
    85   42  106 1    
    86   43   44 2    
    87   43   45 1    
    88   45   46 1    
    89   45   49 1    
    90   45  107 1    
    91   46   47 1    
    92   46  108 1    
    93   46  109 1    
    94   47   48 1    
    95   48  110 1    
    96   48  111 1    
    97   49   50 am   BACKBONE|DICT|INTERRES
    98   49  112 1    
    99   50   51 2    
   100   50   52 1    
   101   52   53 1    
   102   52   54 1    
   103   52  113 1    
   104   53  114 1    
   105   53  115 1    
   106   53  116 1    
   107   54   55 am   BACKBONE|DICT|INTERRES
   108   54  117 1    
   109   55   56 2    
   110   55   57 1    
   111   57   58 1    
   112   57   59 1    
   113   57  118 1    
   114   58  119 1    
   115   58  120 1    
   116   58  121 1    
   117   59   60 am   BACKBONE|DICT|INTERRES
   118   59  122 1    
   119   60   61 2    
   120   60   62 1    
   121   62   63 1    
   122   62   64 1    
   123   62  123 1    
   124   63  124 1    
   125   63  125 1    
   126   63  126 1    
   127   64   65 am   BACKBONE|DICT|INTERRES
   128   64  127 1    
   129   65   66 2    
@<TRIPOS>SUBSTRUCTURE
     1 UNK         1 GROUP             0       ****    0 ROOT    
