@<TRIPOS>MOLECULE
3R135
127   129    1
SMALL
USER_CHARGES


@<TRIPOS>ATOM
      1 CA        -83.0274   24.0300  -70.2240 C.3       0 UNK        -0.1998 
      2 C         -82.5656   25.1602  -71.1309 C.2       0 UNK         0.4909 
      3 O         -83.3894   25.7886  -71.7975 O.2       0 UNK        -0.5240 
      4 N         -81.2533   25.4225  -71.1703 N.am      1 UNK        -0.4739 
      5 CA        -80.6142   26.4677  -71.9798 C.3       1 UNK         0.0864 
      6 C6        -79.2683   26.9219  -71.3594 C.3       11 UNK        -0.0881 
      7 S7        -79.4909   27.8102  -69.7767 S.3       11 UNK        -0.2682 
      8 C8        -80.0952   29.4528  -70.3066 C.3       11 UNK         0.0289 
      9 C9        -79.1569   30.1187  -71.3020 C.ar      11 UNK        -0.0687 
     10 C10       -79.4333   30.0634  -72.6717 C.ar      11 UNK        -0.0823 
     11 C11       -78.5233   30.5762  -73.5987 C.ar      11 UNK        -0.0830 
     12 C12       -77.3527   31.1932  -73.1457 C.ar      11 UNK        -0.1021 
     13 C13       -77.0764   31.2753  -71.7774 C.ar      11 UNK        -0.0753 
     14 C14       -77.9878   30.7441  -70.8592 C.ar      11 UNK        -0.0933 
     15 C15       -75.7774   31.9047  -71.2959 C.3       11 UNK         0.0166 
     16 S16       -74.6756   30.6541  -70.5603 S.3       11 UNK        -0.2615 
     17 C17       -73.0425   31.4735  -70.6707 C.3       11 UNK        -0.0865 
     18 CA        -71.9940   30.6691  -71.4896 C.3       10 UNK         0.0862 
     19 C         -71.4136   29.4760  -70.6759 C.2       10 UNK         0.5551 
     20 N         -70.4556   29.7399  -69.7972 N.am      10 UNK        -0.7319 
     21 O         -71.8398   28.3300  -70.8048 O.2       10 UNK        -0.5018 
     22 N         -72.5230   30.2873  -72.8071 N.am      10 UNK        -0.4509 
     23 C         -71.8095   29.7726  -73.8138 C.2       10 UNK         0.4899 
     24 O         -70.5829   29.6438  -73.8025 O.2       10 UNK        -0.4839 
     25 CA        -72.6089   29.3957  -75.0718 C.3       9 UNK         0.0222 
     26 CB        -72.6973   30.5955  -76.0293 C.3       9 UNK        -0.1966 
     27 N         -72.0185   28.2565  -75.7784 N.am      9 UNK        -0.4218 
     28 C         -72.0566   26.9915  -75.3423 C.2       9 UNK         0.5020 
     29 O         -72.6345   26.6367  -74.3139 O.2       9 UNK        -0.5274 
     30 CA        -71.3497   25.9437  -76.2084 C.3       8 UNK         0.0270 
     31 CB        -70.4377   25.0293  -75.3674 C.3       8 UNK        -0.1976 
     32 N         -72.3549   25.1470  -76.9100 N.am      8 UNK        -0.4313 
     33 C         -72.1492   24.5217  -78.0766 C.2       8 UNK         0.5041 
     34 O         -71.0748   24.5363  -78.6800 O.2       8 UNK        -0.5577 
     35 CA        -73.3377   23.7610  -78.6891 C.3       7 UNK         0.0284 
     36 CB        -73.5876   22.4333  -77.9545 C.3       7 UNK        -0.1958 
     37 N         -74.5629   24.5604  -78.7035 N.am      7 UNK        -0.4454 
     38 C         -74.7766   25.6123  -79.5080 C.2       7 UNK         0.5089 
     39 O         -73.9913   25.9805  -80.3821 O.2       7 UNK        -0.5125 
     40 CA        -76.0791   26.4021  -79.2875 C.3       6 UNK         0.0408 
     41 CB        -77.2496   25.7678  -80.0549 C.3       6 UNK        -0.1791 
     42 N         -76.4066   26.5124  -77.8643 N.am      6 UNK        -0.4762 
     43 C         -75.7441   27.3070  -77.0098 C.2       6 UNK         0.5007 
     44 O         -74.8870   28.1148  -77.3660 O.2       6 UNK        -0.5032 
     45 CA        -76.0568   27.1614  -75.5060 C.3       5 UNK         0.0783 
     46 C46       -76.8169   28.3784  -74.9341 C.3       11 UNK        -0.0857 
     47 S47       -78.4840   28.6740  -75.6202 S.3       11 UNK        -0.2512 
     48 C48       -78.7708   30.3981  -75.0911 C.3       11 UNK         0.0225 
     49 N         -76.6676   25.8728  -75.1538 N.am      5 UNK        -0.4615 
     50 C         -75.9836   24.7184  -75.1655 C.2       4 UNK         0.5053 
     51 O         -74.7989   24.6339  -75.4880 O.2       4 UNK        -0.5105 
     52 CA        -76.7560   23.4324  -74.8363 C.3       4 UNK         0.0263 
     53 CB        -77.0754   23.3350  -73.3358 C.3       4 UNK        -0.1981 
     54 N         -77.9806   23.3015  -75.6263 N.am      4 UNK        -0.4224 
     55 C         -78.0266   23.2066  -76.9620 C.2       3 UNK         0.4895 
     56 O         -77.0227   23.1983  -77.6741 O.2       3 UNK        -0.5091 
     57 CA        -79.4124   23.1607  -77.6324 C.3       3 UNK         0.0250 
     58 CB        -79.9750   21.7261  -77.6638 C.3       3 UNK        -0.1996 
     59 N         -80.3728   24.1265  -77.0762 N.am      3 UNK        -0.4254 
     60 C         -80.9381   24.1325  -75.8611 C.2       2 UNK         0.5004 
     61 O         -80.8077   23.2296  -75.0304 O.2       2 UNK        -0.5226 
     62 CA        -81.7599   25.3831  -75.5078 C.3       2 UNK         0.0269 
     63 CB        -83.2478   25.1520  -75.8155 C.3       2 UNK        -0.1926 
     64 N         -81.6200   25.7822  -74.1045 N.am      2 UNK        -0.4687 
     65 C         -80.4734   26.0319  -73.4553 C.2       1 UNK         0.5165 
     66 O         -79.3577   25.9303  -73.9710 O.2       1 UNK        -0.5079 
     67 H67       -82.1959   23.5692  -69.6910 H         1 UNK         0.0900 
     68 H68       -83.5243   23.2579  -70.8108 H         1 UNK         0.0900 
     69 H69       -83.7355   24.4069  -69.4865 H         1 UNK         0.0900 
     70 H70       -80.6231   24.8644  -70.6122 H         1 UNK         0.2959 
     71 H71       -81.2752   27.3362  -71.9985 H         1 UNK         0.1079 
     72 H72       -78.7019   27.5552  -72.0426 H         1 UNK         0.0837 
     73 H73       -78.6267   26.0574  -71.1799 H         1 UNK         0.0837 
     74 H74       -81.0962   29.3542  -70.7286 H         1 UNK         0.0685 
     75 H75       -80.2020   30.0881  -69.4262 H         1 UNK         0.0685 
     76 H76       -80.3275   29.5677  -73.0236 H         1 UNK         0.1434 
     77 H77       -76.6408   31.5815  -73.8613 H         1 UNK         0.1329 
     78 H78       -77.7654   30.7802  -69.8013 H         1 UNK         0.1335 
     79 H79       -75.9930   32.6777  -70.5569 H         1 UNK         0.0680 
     80 H80       -75.2704   32.3991  -72.1260 H         1 UNK         0.0680 
     81 H81       -72.6815   31.6671  -69.6588 H         1 UNK         0.1032 
     82 H82       -73.1614   32.4606  -71.1194 H         1 UNK         0.1032 
     83 H83       -71.1573   31.3429  -71.6863 H         1 UNK         0.0461 
     84 H84       -70.0733   28.9851  -69.2491 H         1 UNK         0.3453 
     85 H85       -70.0993   30.6754  -69.6765 H         1 UNK         0.3453 
     86 H86       -73.5281   30.3257  -72.8885 H         1 UNK         0.2984 
     87 H87       -73.6223   29.1222  -74.7721 H         1 UNK         0.0554 
     88 H88       -73.2967   30.3586  -76.9087 H         1 UNK         0.0847 
     89 H89       -71.7115   30.9150  -76.3696 H         1 UNK         0.0847 
     90 H90       -73.1665   31.4515  -75.5424 H         1 UNK         0.0847 
     91 H91       -71.5124   28.4659  -76.6264 H         1 UNK         0.3141 
     92 H92       -70.7291   26.4661  -76.9401 H         1 UNK         0.0743 
     93 H93       -71.0113   24.4355  -74.6544 H         1 UNK         0.0784 
     94 H94       -69.8738   24.3415  -75.9976 H         1 UNK         0.0784 
     95 H95       -69.7150   25.6160  -74.7990 H         1 UNK         0.0784 
     96 H96       -73.2606   25.0630  -76.4464 H         1 UNK         0.3213 
     97 H97       -73.0805   23.5242  -79.7240 H         1 UNK         0.0855 
     98 H98       -73.8651   22.5883  -76.9118 H         1 UNK         0.0814 
     99 H99       -72.6932   21.8092  -77.9641 H         1 UNK         0.0814 
    100 H100      -74.3868   21.8636  -78.4290 H         1 UNK         0.0814 
    101 H101      -75.2917   24.2899  -78.0515 H         1 UNK         0.3105 
    102 H102      -75.9318   27.4095  -79.6833 H         1 UNK         0.0547 
    103 H103      -77.0530   25.7734  -81.1277 H         1 UNK         0.0837 
    104 H104      -77.4153   24.7307  -79.7664 H         1 UNK         0.0837 
    105 H105      -78.1772   26.3171  -79.8938 H         1 UNK         0.0837 
    106 H106      -77.0880   25.8688  -77.4899 H         1 UNK         0.3020 
    107 H107      -75.0822   27.1727  -75.0156 H         1 UNK         0.1245 
    108 H108      -76.9123   28.2632  -73.8530 H         1 UNK         0.0781 
    109 H109      -76.2193   29.2796  -75.0830 H         1 UNK         0.0781 
    110 H110      -79.7971   30.6802  -75.3304 H         1 UNK         0.0836 
    111 H111      -78.1274   31.0615  -75.6711 H         1 UNK         0.0836 
    112 H112      -77.6425   25.8860  -74.8602 H         1 UNK         0.3022 
    113 H113      -76.1115   22.5894  -75.0951 H         1 UNK         0.0747 
    114 H114      -77.5502   22.3841  -73.0938 H         1 UNK         0.0793 
    115 H115      -76.1641   23.4029  -72.7400 H         1 UNK         0.0793 
    116 H116      -77.7394   24.1327  -73.0046 H         1 UNK         0.0793 
    117 H117      -78.8655   23.3123  -75.1263 H         1 UNK         0.3047 
    118 H118      -79.2638   23.4665  -78.6691 H         1 UNK         0.0822 
    119 H119      -80.9373   21.6885  -78.1744 H         1 UNK         0.0807 
    120 H120      -80.1090   21.3125  -76.6641 H         1 UNK         0.0807 
    121 H121      -79.2981   21.0583  -78.1983 H         1 UNK         0.0807 
    122 H122      -80.5534   24.9223  -77.6729 H         1 UNK         0.2946 
    123 H123      -81.3994   26.2184  -76.1123 H         1 UNK         0.1144 
    124 H124      -83.8365   26.0510  -75.6317 H         1 UNK         0.0793 
    125 H125      -83.6630   24.3486  -75.2052 H         1 UNK         0.0793 
    126 H126      -83.3954   24.8775  -76.8610 H         1 UNK         0.0793 
    127 H127      -82.4736   25.8342  -73.5573 H         1 UNK         0.2896 
@<TRIPOS>BOND
     1    1    2 1    
     2    1   67 1    
     3    1   68 1    
     4    1   69 1    
     5    2    3 2    
     6    2    4 am   BACKBONE|DICT|INTERRES
     7    4    5 1    
     8    4   70 1    
     9    5    6 1    
    10    5   65 1    
    11    5   71 1    
    12    6    7 1    
    13    6   72 1    
    14    6   73 1    
    15    7    8 1    
    16    8    9 1    
    17    8   74 1    
    18    8   75 1    
    19    9   10 ar   
    20    9   14 ar   
    21   10   11 ar   
    22   10   76 1    
    23   11   12 ar   
    24   11   48 1    
    25   12   13 ar   
    26   12   77 1    
    27   13   14 ar   
    28   13   15 1    
    29   14   78 1    
    30   15   16 1    
    31   15   79 1    
    32   15   80 1    
    33   16   17 1    
    34   17   18 1    
    35   17   81 1    
    36   17   82 1    
    37   18   19 1    
    38   18   22 1    
    39   18   83 1    
    40   19   20 am   BACKBONE|DICT|INTERRES
    41   19   21 2    
    42   20   84 1    
    43   20   85 1    
    44   22   23 am   BACKBONE|DICT|INTERRES
    45   22   86 1    
    46   23   24 2    
    47   23   25 1    
    48   25   26 1    
    49   25   27 1    
    50   25   87 1    
    51   26   88 1    
    52   26   89 1    
    53   26   90 1    
    54   27   28 am   BACKBONE|DICT|INTERRES
    55   27   91 1    
    56   28   29 2    
    57   28   30 1    
    58   30   31 1    
    59   30   32 1    
    60   30   92 1    
    61   31   93 1    
    62   31   94 1    
    63   31   95 1    
    64   32   33 am   BACKBONE|DICT|INTERRES
    65   32   96 1    
    66   33   34 2    
    67   33   35 1    
    68   35   36 1    
    69   35   37 1    
    70   35   97 1    
    71   36   98 1    
    72   36   99 1    
    73   36  100 1    
    74   37   38 am   BACKBONE|DICT|INTERRES
    75   37  101 1    
    76   38   39 2    
    77   38   40 1    
    78   40   41 1    
    79   40   42 1    
    80   40  102 1    
    81   41  103 1    
    82   41  104 1    
    83   41  105 1    
    84   42   43 am   BACKBONE|DICT|INTERRES
    85   42  106 1    
    86   43   44 2    
    87   43   45 1    
    88   45   46 1    
    89   45   49 1    
    90   45  107 1    
    91   46   47 1    
    92   46  108 1    
    93   46  109 1    
    94   47   48 1    
    95   48  110 1    
    96   48  111 1    
    97   49   50 am   BACKBONE|DICT|INTERRES
    98   49  112 1    
    99   50   51 2    
   100   50   52 1    
   101   52   53 1    
   102   52   54 1    
   103   52  113 1    
   104   53  114 1    
   105   53  115 1    
   106   53  116 1    
   107   54   55 am   BACKBONE|DICT|INTERRES
   108   54  117 1    
   109   55   56 2    
   110   55   57 1    
   111   57   58 1    
   112   57   59 1    
   113   57  118 1    
   114   58  119 1    
   115   58  120 1    
   116   58  121 1    
   117   59   60 am   BACKBONE|DICT|INTERRES
   118   59  122 1    
   119   60   61 2    
   120   60   62 1    
   121   62   63 1    
   122   62   64 1    
   123   62  123 1    
   124   63  124 1    
   125   63  125 1    
   126   63  126 1    
   127   64   65 am   BACKBONE|DICT|INTERRES
   128   64  127 1    
   129   65   66 2    
@<TRIPOS>SUBSTRUCTURE
     1 UNK         1 GROUP             0       ****    0 ROOT    
