@<TRIPOS>MOLECULE
3R135
127   129    1
SMALL
USER_CHARGES


@<TRIPOS>ATOM
      1 CA        -83.2435   23.0279  -70.0252 C.3       0 UNK        -0.1998 
      2 C         -83.3425   24.0608  -71.1377 C.2       0 UNK         0.4909 
      3 O         -84.3803   24.1573  -71.7943 O.2       0 UNK        -0.5240 
      4 N         -82.2750   24.8404  -71.3462 N.am      1 UNK        -0.4739 
      5 CA        -82.1471   25.8277  -72.4222 C.3       1 UNK         0.0864 
      6 C6        -81.0103   26.8541  -72.1552 C.3       11 UNK        -0.0881 
      7 S7        -79.4752   26.1555  -71.4398 S.3       11 UNK        -0.2682 
      8 C8        -78.8680   27.5309  -70.4060 C.3       11 UNK         0.0289 
      9 C9        -78.0030   28.4922  -71.2089 C.ar      11 UNK        -0.0687 
     10 C10       -78.5858   29.3288  -72.1633 C.ar      11 UNK        -0.0823 
     11 C11       -77.7932   30.1563  -72.9607 C.ar      11 UNK        -0.0830 
     12 C12       -76.4114   30.1905  -72.7591 C.ar      11 UNK        -0.1021 
     13 C13       -75.8167   29.3836  -71.7849 C.ar      11 UNK        -0.0753 
     14 C14       -76.6172   28.5295  -71.0182 C.ar      11 UNK        -0.0933 
     15 C15       -74.3055   29.3833  -71.6112 C.3       11 UNK         0.0166 
     16 S16       -73.6352   31.0414  -71.2683 S.3       11 UNK        -0.2615 
     17 C17       -71.8480   30.6730  -71.2089 C.3       11 UNK        -0.0865 
     18 CA        -71.1030   30.9736  -72.5381 C.3       10 UNK         0.0862 
     19 C         -69.5720   30.7537  -72.3494 C.2       10 UNK         0.5551 
     20 N         -68.9770   29.6991  -72.8970 N.am      10 UNK        -0.7319 
     21 O         -68.9162   31.5568  -71.6906 O.2       10 UNK        -0.5018 
     22 N         -71.6810   30.2303  -73.6686 N.am      10 UNK        -0.4509 
     23 C         -71.4003   30.4340  -74.9617 C.2       10 UNK         0.4899 
     24 O         -70.7362   31.3882  -75.3695 O.2       10 UNK        -0.4839 
     25 CA        -71.9446   29.3967  -75.9702 C.3       9 UNK         0.0222 
     26 CB        -70.9729   29.1681  -77.1463 C.3       9 UNK        -0.1966 
     27 N         -72.3394   28.1044  -75.3853 N.am      9 UNK        -0.4218 
     28 C         -71.5746   27.2614  -74.6710 C.2       9 UNK         0.5020 
     29 O         -70.4071   27.4942  -74.3524 O.2       9 UNK        -0.5274 
     30 CA        -72.2291   25.9534  -74.2005 C.3       8 UNK         0.0270 
     31 CB        -73.0849   26.1874  -72.9459 C.3       8 UNK        -0.1976 
     32 N         -73.0380   25.3168  -75.2419 N.am      8 UNK        -0.4313 
     33 C         -72.5176   24.6484  -76.2819 C.2       8 UNK         0.5041 
     34 O         -71.3088   24.4897  -76.4591 O.2       8 UNK        -0.5577 
     35 CA        -73.5048   24.0435  -77.2940 C.3       7 UNK         0.0284 
     36 CB        -74.1298   22.7539  -76.7395 C.3       7 UNK        -0.1958 
     37 N         -74.5572   24.9802  -77.6904 N.am      7 UNK        -0.4454 
     38 C         -74.3448   26.0907  -78.4113 C.2       7 UNK         0.5089 
     39 O         -73.2456   26.4264  -78.8524 O.2       7 UNK        -0.5125 
     40 CA        -75.5642   26.9868  -78.6829 C.3       6 UNK         0.0408 
     41 CB        -76.3269   26.5045  -79.9270 C.3       6 UNK        -0.1791 
     42 N         -76.4829   27.0658  -77.5465 N.am      6 UNK        -0.4762 
     43 C         -76.1882   27.6216  -76.3619 C.2       6 UNK         0.5007 
     44 O         -75.0936   28.1117  -76.0823 O.2       6 UNK        -0.5032 
     45 CA        -77.2965   27.5639  -75.2927 C.3       5 UNK         0.0783 
     46 C46       -78.4616   28.5446  -75.6061 C.3       11 UNK        -0.0857 
     47 S47       -77.9590   30.3025  -75.7164 S.3       11 UNK        -0.2512 
     48 C48       -78.4247   30.9626  -74.0829 C.3       11 UNK         0.0225 
     49 N         -77.7711   26.1853  -75.1218 N.am      5 UNK        -0.4615 
     50 C         -77.0014   25.1602  -74.7158 C.2       4 UNK         0.5053 
     51 O         -75.8290   25.2857  -74.3645 O.2       4 UNK        -0.5105 
     52 CA        -77.5955   23.7404  -74.7788 C.3       4 UNK         0.0263 
     53 CB        -78.1319   23.2962  -73.4117 C.3       4 UNK        -0.1981 
     54 N         -78.6325   23.5895  -75.8003 N.am      4 UNK        -0.4224 
     55 C         -78.4091   23.7152  -77.1175 C.2       3 UNK         0.4895 
     56 O         -77.2912   23.8981  -77.6015 O.2       3 UNK        -0.5091 
     57 CA        -79.6284   23.6799  -78.0568 C.3       3 UNK         0.0250 
     58 CB        -79.7584   22.2946  -78.7093 C.3       3 UNK        -0.1996 
     59 N         -80.9053   24.0403  -77.4279 N.am      3 UNK        -0.4254 
     60 C         -81.1749   25.2003  -76.8110 C.2       2 UNK         0.5004 
     61 O         -80.3462   26.1001  -76.6639 O.2       2 UNK        -0.5226 
     62 CA        -82.5935   25.3962  -76.2417 C.3       2 UNK         0.0269 
     63 CB        -83.5296   24.1774  -76.4191 C.3       2 UNK        -0.1926 
     64 N         -82.5615   25.8197  -74.8357 N.am      2 UNK        -0.4687 
     65 C         -82.0175   25.1526  -73.8057 C.2       1 UNK         0.5165 
     66 O         -81.4403   24.0673  -73.9175 O.2       1 UNK        -0.5079 
     67 H67       -84.0215   23.2005  -69.2819 H         1 UNK         0.0900 
     68 H68       -82.2781   23.0644  -69.5205 H         1 UNK         0.0900 
     69 H69       -83.3758   22.0257  -70.4317 H         1 UNK         0.0900 
     70 H70       -81.4353   24.7022  -70.8009 H         1 UNK         0.2959 
     71 H71       -83.0851   26.3881  -72.4411 H         1 UNK         0.1079 
     72 H72       -80.7555   27.3997  -73.0655 H         1 UNK         0.0837 
     73 H73       -81.3921   27.6066  -71.4641 H         1 UNK         0.0837 
     74 H74       -78.2933   27.1089  -69.5803 H         1 UNK         0.0685 
     75 H75       -79.7009   28.0666  -69.9488 H         1 UNK         0.0685 
     76 H76       -79.6549   29.3059  -72.3148 H         1 UNK         0.1434 
     77 H77       -75.7942   30.8232  -73.3829 H         1 UNK         0.1329 
     78 H78       -76.1601   27.8799  -70.2844 H         1 UNK         0.1335 
     79 H79       -73.8615   29.0049  -72.5299 H         1 UNK         0.0680 
     80 H80       -74.0071   28.7042  -70.8108 H         1 UNK         0.0680 
     81 H81       -71.4261   31.2748  -70.4013 H         1 UNK         0.1032 
     82 H82       -71.6972   29.6338  -70.9098 H         1 UNK         0.1032 
     83 H83       -71.2348   32.0349  -72.7573 H         1 UNK         0.0461 
     84 H84       -69.5083   29.0193  -73.4323 H         1 UNK         0.3453 
     85 H85       -67.9863   29.5703  -72.7680 H         1 UNK         0.3453 
     86 H86       -72.2296   29.4200  -73.4321 H         1 UNK         0.2984 
     87 H87       -72.8590   29.8296  -76.3781 H         1 UNK         0.0554 
     88 H88       -70.7798   30.0958  -77.6863 H         1 UNK         0.0847 
     89 H89       -71.3826   28.4575  -77.8647 H         1 UNK         0.0847 
     90 H90       -70.0114   28.7829  -76.8052 H         1 UNK         0.0847 
     91 H91       -73.3085   27.8479  -75.5676 H         1 UNK         0.3141 
     92 H92       -71.4242   25.2679  -73.9258 H         1 UNK         0.0743 
     93 H93       -72.5148   26.6951  -72.1666 H         1 UNK         0.0784 
     94 H94       -73.9647   26.7921  -73.1655 H         1 UNK         0.0784 
     95 H95       -73.4341   25.2430  -72.5280 H         1 UNK         0.0784 
     96 H96       -74.0485   25.3701  -75.1339 H         1 UNK         0.3213 
     97 H97       -72.9419   23.7831  -78.1931 H         1 UNK         0.0855 
     98 H98       -74.6446   22.9298  -75.7961 H         1 UNK         0.0814 
     99 H99       -73.3620   22.0022  -76.5522 H         1 UNK         0.0814 
    100 H100      -74.8446   22.3214  -77.4400 H         1 UNK         0.0814 
    101 H101      -75.5131   24.7411  -77.4413 H         1 UNK         0.3105 
    102 H102      -75.1953   27.9956  -78.8804 H         1 UNK         0.0547 
    103 H103      -76.7415   25.5055  -79.7871 H         1 UNK         0.0837 
    104 H104      -77.1473   27.1774  -80.1763 H         1 UNK         0.0837 
    105 H105      -75.6678   26.4639  -80.7953 H         1 UNK         0.0837 
    106 H106      -77.3917   26.6409  -77.6646 H         1 UNK         0.3020 
    107 H107      -76.8431   27.8598  -74.3447 H         1 UNK         0.1245 
    108 H108      -79.2471   28.4437  -74.8567 H         1 UNK         0.0781 
    109 H109      -78.9309   28.2841  -76.5557 H         1 UNK         0.0781 
    110 H110      -78.1013   32.0019  -74.0111 H         1 UNK         0.0836 
    111 H111      -79.5125   30.9718  -73.9969 H         1 UNK         0.0836 
    112 H112      -78.7128   25.9951  -75.4487 H         1 UNK         0.3022 
    113 H113      -76.7830   23.0627  -75.0423 H         1 UNK         0.0747 
    114 H114      -77.3718   23.4081  -72.6373 H         1 UNK         0.0793 
    115 H115      -78.4326   22.2487  -73.4242 H         1 UNK         0.0793 
    116 H116      -78.9939   23.8861  -73.1082 H         1 UNK         0.0793 
    117 H117      -79.5832   23.4728  -75.4738 H         1 UNK         0.3047 
    118 H118      -79.4397   24.4117  -78.8449 H         1 UNK         0.0822 
    119 H119      -78.8313   22.0098  -79.2093 H         1 UNK         0.0807 
    120 H120      -80.5462   22.2815  -79.4628 H         1 UNK         0.0807 
    121 H121      -79.9823   21.5212  -77.9734 H         1 UNK         0.0807 
    122 H122      -81.6419   23.3517  -77.4816 H         1 UNK         0.2946 
    123 H123      -83.0233   26.2256  -76.8060 H         1 UNK         0.1144 
    124 H124      -83.6613   23.9259  -77.4724 H         1 UNK         0.0793 
    125 H125      -84.5223   24.3896  -76.0216 H         1 UNK         0.0793 
    126 H126      -83.1568   23.2902  -75.9055 H         1 UNK         0.0793 
    127 H127      -82.9798   26.7213  -74.6527 H         1 UNK         0.2896 
@<TRIPOS>BOND
     1    1    2 1    
     2    1   67 1    
     3    1   68 1    
     4    1   69 1    
     5    2    3 2    
     6    2    4 am   BACKBONE|DICT|INTERRES
     7    4    5 1    
     8    4   70 1    
     9    5    6 1    
    10    5   65 1    
    11    5   71 1    
    12    6    7 1    
    13    6   72 1    
    14    6   73 1    
    15    7    8 1    
    16    8    9 1    
    17    8   74 1    
    18    8   75 1    
    19    9   10 ar   
    20    9   14 ar   
    21   10   11 ar   
    22   10   76 1    
    23   11   12 ar   
    24   11   48 1    
    25   12   13 ar   
    26   12   77 1    
    27   13   14 ar   
    28   13   15 1    
    29   14   78 1    
    30   15   16 1    
    31   15   79 1    
    32   15   80 1    
    33   16   17 1    
    34   17   18 1    
    35   17   81 1    
    36   17   82 1    
    37   18   19 1    
    38   18   22 1    
    39   18   83 1    
    40   19   20 am   BACKBONE|DICT|INTERRES
    41   19   21 2    
    42   20   84 1    
    43   20   85 1    
    44   22   23 am   BACKBONE|DICT|INTERRES
    45   22   86 1    
    46   23   24 2    
    47   23   25 1    
    48   25   26 1    
    49   25   27 1    
    50   25   87 1    
    51   26   88 1    
    52   26   89 1    
    53   26   90 1    
    54   27   28 am   BACKBONE|DICT|INTERRES
    55   27   91 1    
    56   28   29 2    
    57   28   30 1    
    58   30   31 1    
    59   30   32 1    
    60   30   92 1    
    61   31   93 1    
    62   31   94 1    
    63   31   95 1    
    64   32   33 am   BACKBONE|DICT|INTERRES
    65   32   96 1    
    66   33   34 2    
    67   33   35 1    
    68   35   36 1    
    69   35   37 1    
    70   35   97 1    
    71   36   98 1    
    72   36   99 1    
    73   36  100 1    
    74   37   38 am   BACKBONE|DICT|INTERRES
    75   37  101 1    
    76   38   39 2    
    77   38   40 1    
    78   40   41 1    
    79   40   42 1    
    80   40  102 1    
    81   41  103 1    
    82   41  104 1    
    83   41  105 1    
    84   42   43 am   BACKBONE|DICT|INTERRES
    85   42  106 1    
    86   43   44 2    
    87   43   45 1    
    88   45   46 1    
    89   45   49 1    
    90   45  107 1    
    91   46   47 1    
    92   46  108 1    
    93   46  109 1    
    94   47   48 1    
    95   48  110 1    
    96   48  111 1    
    97   49   50 am   BACKBONE|DICT|INTERRES
    98   49  112 1    
    99   50   51 2    
   100   50   52 1    
   101   52   53 1    
   102   52   54 1    
   103   52  113 1    
   104   53  114 1    
   105   53  115 1    
   106   53  116 1    
   107   54   55 am   BACKBONE|DICT|INTERRES
   108   54  117 1    
   109   55   56 2    
   110   55   57 1    
   111   57   58 1    
   112   57   59 1    
   113   57  118 1    
   114   58  119 1    
   115   58  120 1    
   116   58  121 1    
   117   59   60 am   BACKBONE|DICT|INTERRES
   118   59  122 1    
   119   60   61 2    
   120   60   62 1    
   121   62   63 1    
   122   62   64 1    
   123   62  123 1    
   124   63  124 1    
   125   63  125 1    
   126   63  126 1    
   127   64   65 am   BACKBONE|DICT|INTERRES
   128   64  127 1    
   129   65   66 2    
@<TRIPOS>SUBSTRUCTURE
     1 UNK         1 GROUP             0       ****    0 ROOT    
