@<TRIPOS>MOLECULE
3R135
127   129    1
SMALL
USER_CHARGES


@<TRIPOS>ATOM
      1 CA        -85.1540   27.3956  -70.8925 C.3       0 UNK        -0.1998 
      2 C         -84.8641   27.1994  -72.3728 C.2       0 UNK         0.4909 
      3 O         -85.4758   26.3406  -73.0087 O.2       0 UNK        -0.5240 
      4 N         -83.9364   27.9910  -72.9264 N.am      1 UNK        -0.4739 
      5 CA        -83.4961   27.9292  -74.3269 C.3       1 UNK         0.0864 
      6 C6        -82.7680   29.2265  -74.7735 C.3       11 UNK        -0.0881 
      7 S7        -81.5209   29.8356  -73.5852 S.3       11 UNK        -0.2682 
      8 C8        -79.9739   29.3033  -74.3735 C.3       11 UNK         0.0289 
      9 C9        -78.8486   29.2732  -73.3540 C.ar      11 UNK        -0.0687 
     10 C10       -78.7168   28.1657  -72.5153 C.ar      11 UNK        -0.0823 
     11 C11       -77.7151   28.1217  -71.5441 C.ar      11 UNK        -0.0830 
     12 C12       -76.8409   29.2023  -71.4108 C.ar      11 UNK        -0.1021 
     13 C13       -76.9503   30.3118  -72.2551 C.ar      11 UNK        -0.0753 
     14 C14       -77.9569   30.3430  -73.2273 C.ar      11 UNK        -0.0933 
     15 C15       -75.9923   31.4837  -72.0999 C.3       11 UNK         0.0166 
     16 S16       -74.4900   31.2683  -73.1034 S.3       11 UNK        -0.2615 
     17 C17       -73.6482   29.9140  -72.2111 C.3       11 UNK        -0.0865 
     18 CA        -72.1772   29.7337  -72.6591 C.3       10 UNK         0.0862 
     19 C         -71.4732   28.6391  -71.8192 C.2       10 UNK         0.5551 
     20 N         -70.5965   29.0263  -70.9033 N.am      10 UNK        -0.7319 
     21 O         -71.7457   27.4486  -71.9593 O.2       10 UNK        -0.5018 
     22 N         -72.1021   29.3981  -74.0829 N.am      10 UNK        -0.4509 
     23 C         -71.2057   29.8907  -74.9431 C.2       10 UNK         0.4899 
     24 O         -70.3224   30.6931  -74.6342 O.2       10 UNK        -0.4839 
     25 CA        -71.3392   29.4100  -76.3989 C.3       9 UNK         0.0222 
     26 CB        -70.1926   29.8917  -77.3141 C.3       9 UNK        -0.1966 
     27 N         -71.5224   27.9587  -76.4912 N.am      9 UNK        -0.4218 
     28 C         -70.6557   26.9991  -76.1277 C.2       9 UNK         0.5020 
     29 O         -69.5305   27.2261  -75.6800 O.2       9 UNK        -0.5274 
     30 CA        -71.1032   25.5292  -76.2746 C.3       8 UNK         0.0270 
     31 CB        -71.1938   24.8613  -74.8926 C.3       8 UNK        -0.1976 
     32 N         -72.3793   25.3582  -76.9770 N.am      8 UNK        -0.4313 
     33 C         -72.5661   25.5576  -78.2891 C.2       8 UNK         0.5041 
     34 O         -71.6574   25.8221  -79.0771 O.2       8 UNK        -0.5577 
     35 CA        -74.0144   25.5006  -78.8027 C.3       7 UNK         0.0284 
     36 CB        -74.3846   24.0661  -79.2113 C.3       7 UNK        -0.1958 
     37 N         -74.9945   26.0125  -77.8370 N.am      7 UNK        -0.4454 
     38 C         -75.0551   27.2807  -77.4019 C.2       7 UNK         0.5089 
     39 O         -74.2881   28.1667  -77.7782 O.2       7 UNK        -0.5125 
     40 CA        -76.1104   27.6052  -76.3279 C.3       6 UNK         0.0408 
     41 CB        -77.5177   27.6605  -76.9386 C.3       6 UNK        -0.1791 
     42 N         -76.0748   26.6526  -75.2144 N.am      6 UNK        -0.4762 
     43 C         -75.0279   26.5237  -74.3837 C.2       6 UNK         0.5007 
     44 O         -74.0452   27.2654  -74.4202 O.2       6 UNK        -0.5032 
     45 CA        -75.0156   25.3230  -73.4149 C.3       5 UNK         0.0783 
     46 C46       -75.4122   25.6823  -71.9564 C.3       11 UNK        -0.0857 
     47 S47       -77.1715   25.4063  -71.5478 S.3       11 UNK        -0.2512 
     48 C48       -77.5995   26.9149  -70.6280 C.3       11 UNK         0.0225 
     49 N         -75.7456   24.1684  -73.9464 N.am      5 UNK        -0.4615 
     50 C         -75.3263   23.4099  -74.9641 C.2       4 UNK         0.5053 
     51 O         -74.2658   23.5932  -75.5613 O.2       4 UNK        -0.5105 
     52 CA        -76.2702   22.2812  -75.4062 C.3       4 UNK         0.0263 
     53 CB        -76.3420   21.1714  -74.3441 C.3       4 UNK        -0.1981 
     54 N         -77.6220   22.7543  -75.7230 N.am      4 UNK        -0.4224 
     55 C         -77.9093   23.6103  -76.7142 C.2       3 UNK         0.4895 
     56 O         -77.0595   24.1399  -77.4268 O.2       3 UNK        -0.5091 
     57 CA        -79.3885   23.9283  -76.9774 C.3       3 UNK         0.0250 
     58 CB        -79.9702   22.9417  -78.0026 C.3       3 UNK        -0.1996 
     59 N         -80.2350   23.9433  -75.7833 N.am      3 UNK        -0.4254 
     60 C         -80.1432   24.8442  -74.7962 C.2       2 UNK         0.5004 
     61 O         -79.2405   25.6778  -74.7051 O.2       2 UNK        -0.5226 
     62 CA        -81.2667   24.8105  -73.7436 C.3       2 UNK         0.0269 
     63 CB        -80.7228   24.4352  -72.3562 C.3       2 UNK        -0.1926 
     64 N         -82.0039   26.0761  -73.6538 N.am      2 UNK        -0.4687 
     65 C         -82.6872   26.6537  -74.6559 C.2       1 UNK         0.5165 
     66 O         -82.7370   26.1985  -75.7997 O.2       1 UNK        -0.5079 
     67 H67       -84.9501   26.4757  -70.3452 H         1 UNK         0.0900 
     68 H68       -86.2025   27.6541  -70.7466 H         1 UNK         0.0900 
     69 H69       -84.5458   28.1898  -70.4597 H         1 UNK         0.0900 
     70 H70       -83.4645   28.6854  -72.3628 H         1 UNK         0.2959 
     71 H71       -84.4008   27.8553  -74.9353 H         1 UNK         0.1079 
     72 H72       -83.5076   30.0207  -74.8857 H         1 UNK         0.0837 
     73 H73       -82.3222   29.1124  -75.7639 H         1 UNK         0.0837 
     74 H74       -79.7330   29.9708  -75.2022 H         1 UNK         0.0685 
     75 H75       -80.1063   28.3076  -74.7983 H         1 UNK         0.0685 
     76 H76       -79.4007   27.3358  -72.6193 H         1 UNK         0.1434 
     77 H77       -76.0719   29.1804  -70.6511 H         1 UNK         0.1329 
     78 H78       -78.0532   31.2033  -73.8753 H         1 UNK         0.1335 
     79 H79       -76.4861   32.4079  -72.4038 H         1 UNK         0.0680 
     80 H80       -75.7192   31.6173  -71.0520 H         1 UNK         0.0680 
     81 H81       -73.6920   30.1247  -71.1409 H         1 UNK         0.1032 
     82 H82       -74.2079   28.9913  -72.3698 H         1 UNK         0.1032 
     83 H83       -71.6670   30.6834  -72.4840 H         1 UNK         0.0461 
     84 H84       -70.1405   28.3283  -70.3368 H         1 UNK         0.3453 
     85 H85       -70.3713   30.0008  -70.7756 H         1 UNK         0.3453 
     86 H86       -72.7588   28.6846  -74.3899 H         1 UNK         0.2984 
     87 H87       -72.2621   29.8520  -76.7771 H         1 UNK         0.0554 
     88 H88       -70.3312   29.5458  -78.3384 H         1 UNK         0.0847 
     89 H89       -69.2197   29.5402  -76.9695 H         1 UNK         0.0847 
     90 H90       -70.1502   30.9811  -77.3434 H         1 UNK         0.0847 
     91 H91       -72.4305   27.6701  -76.8374 H         1 UNK         0.3141 
     92 H92       -70.3333   25.0125  -76.8513 H         1 UNK         0.0743 
     93 H93       -70.2189   24.8463  -74.4037 H         1 UNK         0.0784 
     94 H94       -71.8726   25.4020  -74.2337 H         1 UNK         0.0784 
     95 H95       -71.5356   23.8286  -74.9646 H         1 UNK         0.0784 
     96 H96       -73.1711   25.0460  -76.4219 H         1 UNK         0.3213 
     97 H97       -74.0699   26.1320  -79.6920 H         1 UNK         0.0855 
     98 H98       -74.3907   23.3916  -78.3542 H         1 UNK         0.0814 
     99 H99       -73.6729   23.6688  -79.9363 H         1 UNK         0.0814 
    100 H100      -75.3717   24.0282  -79.6724 H         1 UNK         0.0814 
    101 H101      -75.6907   25.3451  -77.5070 H         1 UNK         0.3105 
    102 H102      -75.8851   28.5939  -75.9216 H         1 UNK         0.0547 
    103 H103      -78.2643   27.8962  -76.1833 H         1 UNK         0.0837 
    104 H104      -77.5773   28.4309  -77.7081 H         1 UNK         0.0837 
    105 H105      -77.8005   26.7163  -77.4014 H         1 UNK         0.0837 
    106 H106      -76.8661   26.0296  -75.1107 H         1 UNK         0.3020 
    107 H107      -73.9668   25.0240  -73.3665 H         1 UNK         0.1245 
    108 H108      -75.1210   26.7050  -71.7101 H         1 UNK         0.0781 
    109 H109      -74.8385   25.0545  -71.2730 H         1 UNK         0.0781 
    110 H110      -76.8629   27.0819  -69.8405 H         1 UNK         0.0836 
    111 H111      -78.5552   26.7602  -70.1253 H         1 UNK         0.0836 
    112 H112      -76.6403   23.9801  -73.5166 H         1 UNK         0.3022 
    113 H113      -75.8518   21.8477  -76.3173 H         1 UNK         0.0747 
    114 H114      -76.9140   20.3160  -74.7041 H         1 UNK         0.0793 
    115 H115      -75.3446   20.8079  -74.0924 H         1 UNK         0.0793 
    116 H116      -76.8053   21.5187  -73.4197 H         1 UNK         0.0793 
    117 H117      -78.3846   22.3718  -75.1836 H         1 UNK         0.3047 
    118 H118      -79.4299   24.9276  -77.4154 H         1 UNK         0.0822 
    119 H119      -79.3722   22.9296  -78.9152 H         1 UNK         0.0807 
    120 H120      -80.9854   23.2182  -78.2883 H         1 UNK         0.0807 
    121 H121      -79.9946   21.9221  -77.6157 H         1 UNK         0.0807 
    122 H122      -81.0100   23.2958  -75.7784 H         1 UNK         0.2946 
    123 H123      -81.9874   24.0430  -74.0342 H         1 UNK         0.1144 
    124 H124      -80.1287   23.5213  -72.3997 H         1 UNK         0.0793 
    125 H125      -81.5325   24.2609  -71.6475 H         1 UNK         0.0793 
    126 H126      -80.0858   25.2175  -71.9467 H         1 UNK         0.0793 
    127 H127      -82.0204   26.5307  -72.7531 H         1 UNK         0.2896 
@<TRIPOS>BOND
     1    1    2 1    
     2    1   67 1    
     3    1   68 1    
     4    1   69 1    
     5    2    3 2    
     6    2    4 am   BACKBONE|DICT|INTERRES
     7    4    5 1    
     8    4   70 1    
     9    5    6 1    
    10    5   65 1    
    11    5   71 1    
    12    6    7 1    
    13    6   72 1    
    14    6   73 1    
    15    7    8 1    
    16    8    9 1    
    17    8   74 1    
    18    8   75 1    
    19    9   10 ar   
    20    9   14 ar   
    21   10   11 ar   
    22   10   76 1    
    23   11   12 ar   
    24   11   48 1    
    25   12   13 ar   
    26   12   77 1    
    27   13   14 ar   
    28   13   15 1    
    29   14   78 1    
    30   15   16 1    
    31   15   79 1    
    32   15   80 1    
    33   16   17 1    
    34   17   18 1    
    35   17   81 1    
    36   17   82 1    
    37   18   19 1    
    38   18   22 1    
    39   18   83 1    
    40   19   20 am   BACKBONE|DICT|INTERRES
    41   19   21 2    
    42   20   84 1    
    43   20   85 1    
    44   22   23 am   BACKBONE|DICT|INTERRES
    45   22   86 1    
    46   23   24 2    
    47   23   25 1    
    48   25   26 1    
    49   25   27 1    
    50   25   87 1    
    51   26   88 1    
    52   26   89 1    
    53   26   90 1    
    54   27   28 am   BACKBONE|DICT|INTERRES
    55   27   91 1    
    56   28   29 2    
    57   28   30 1    
    58   30   31 1    
    59   30   32 1    
    60   30   92 1    
    61   31   93 1    
    62   31   94 1    
    63   31   95 1    
    64   32   33 am   BACKBONE|DICT|INTERRES
    65   32   96 1    
    66   33   34 2    
    67   33   35 1    
    68   35   36 1    
    69   35   37 1    
    70   35   97 1    
    71   36   98 1    
    72   36   99 1    
    73   36  100 1    
    74   37   38 am   BACKBONE|DICT|INTERRES
    75   37  101 1    
    76   38   39 2    
    77   38   40 1    
    78   40   41 1    
    79   40   42 1    
    80   40  102 1    
    81   41  103 1    
    82   41  104 1    
    83   41  105 1    
    84   42   43 am   BACKBONE|DICT|INTERRES
    85   42  106 1    
    86   43   44 2    
    87   43   45 1    
    88   45   46 1    
    89   45   49 1    
    90   45  107 1    
    91   46   47 1    
    92   46  108 1    
    93   46  109 1    
    94   47   48 1    
    95   48  110 1    
    96   48  111 1    
    97   49   50 am   BACKBONE|DICT|INTERRES
    98   49  112 1    
    99   50   51 2    
   100   50   52 1    
   101   52   53 1    
   102   52   54 1    
   103   52  113 1    
   104   53  114 1    
   105   53  115 1    
   106   53  116 1    
   107   54   55 am   BACKBONE|DICT|INTERRES
   108   54  117 1    
   109   55   56 2    
   110   55   57 1    
   111   57   58 1    
   112   57   59 1    
   113   57  118 1    
   114   58  119 1    
   115   58  120 1    
   116   58  121 1    
   117   59   60 am   BACKBONE|DICT|INTERRES
   118   59  122 1    
   119   60   61 2    
   120   60   62 1    
   121   62   63 1    
   122   62   64 1    
   123   62  123 1    
   124   63  124 1    
   125   63  125 1    
   126   63  126 1    
   127   64   65 am   BACKBONE|DICT|INTERRES
   128   64  127 1    
   129   65   66 2    
@<TRIPOS>SUBSTRUCTURE
     1 UNK         1 GROUP             0       ****    0 ROOT    
