@<TRIPOS>MOLECULE
3R135
127   129    1
SMALL
USER_CHARGES


@<TRIPOS>ATOM
      1 CA        -78.6366   30.5779  -75.6100 C.3       0 UNK        -0.1998 
      2 C         -78.9971   29.3987  -74.7202 C.2       0 UNK         0.4909 
      3 O         -78.1429   28.5599  -74.4417 O.2       0 UNK        -0.5240 
      4 N         -80.2571   29.3288  -74.2751 N.am      1 UNK        -0.4739 
      5 CA        -80.7778   28.2250  -73.4637 C.3       1 UNK         0.0864 
      6 C6        -82.0365   28.6250  -72.6546 C.3       11 UNK        -0.0881 
      7 S7        -81.7988   30.0890  -71.5949 S.3       11 UNK        -0.2682 
      8 C8        -80.9606   29.3747  -70.1421 C.3       11 UNK         0.0289 
      9 C9        -79.4492   29.2903  -70.3230 C.ar      11 UNK        -0.0687 
     10 C10       -78.7796   28.0672  -70.2010 C.ar      11 UNK        -0.0823 
     11 C11       -77.3846   28.0080  -70.3032 C.ar      11 UNK        -0.0830 
     12 C12       -76.6618   29.1837  -70.5347 C.ar      11 UNK        -0.1021 
     13 C13       -77.3198   30.4082  -70.6693 C.ar      11 UNK        -0.0753 
     14 C14       -78.7115   30.4543  -70.5601 C.ar      11 UNK        -0.0933 
     15 C15       -76.5343   31.6908  -70.8930 C.3       11 UNK         0.0166 
     16 S16       -76.2450   32.0070  -72.6613 S.3       11 UNK        -0.2615 
     17 C17       -74.6641   31.1399  -72.9656 C.3       11 UNK        -0.0865 
     18 CA        -74.7377   30.0506  -74.0807 C.3       10 UNK         0.0862 
     19 C         -74.7731   30.6038  -75.5393 C.2       10 UNK         0.5551 
     20 N         -75.2572   31.8180  -75.7580 N.am      10 UNK        -0.7319 
     21 O         -74.4085   29.9196  -76.4933 O.2       10 UNK        -0.5018 
     22 N         -73.7134   29.0072  -73.9056 N.am      10 UNK        -0.4509 
     23 C         -72.3881   29.2073  -73.8656 C.2       10 UNK         0.4899 
     24 O         -71.8541   30.3143  -73.9365 O.2       10 UNK        -0.4839 
     25 CA        -71.5005   27.9658  -73.7171 C.3       9 UNK         0.0222 
     26 CB        -71.6638   27.3126  -72.3329 C.3       9 UNK        -0.1966 
     27 N         -71.7799   26.9977  -74.7742 N.am      9 UNK        -0.4218 
     28 C         -70.8781   26.1791  -75.3299 C.2       9 UNK         0.5020 
     29 O         -69.6970   26.1176  -74.9843 O.2       9 UNK        -0.5274 
     30 CA        -71.3714   25.2806  -76.4780 C.3       8 UNK         0.0270 
     31 CB        -72.0128   23.9966  -75.9274 C.3       8 UNK        -0.1976 
     32 N         -72.3222   25.9620  -77.3584 N.am      8 UNK        -0.4313 
     33 C         -72.0278   26.9826  -78.1743 C.2       8 UNK         0.5041 
     34 O         -70.8848   27.4107  -78.3395 O.2       8 UNK        -0.5577 
     35 CA        -73.1902   27.6682  -78.9175 C.3       7 UNK         0.0284 
     36 CB        -73.3555   27.1109  -80.3454 C.3       7 UNK        -0.1958 
     37 N         -74.4590   27.6757  -78.1746 N.am      7 UNK        -0.4454 
     38 C         -75.2773   26.6536  -77.8973 C.2       7 UNK         0.5089 
     39 O         -75.0925   25.4978  -78.2818 O.2       7 UNK        -0.5125 
     40 CA        -76.4727   26.9673  -76.9839 C.3       6 UNK         0.0408 
     41 CB        -77.7908   26.9207  -77.7715 C.3       6 UNK        -0.1791 
     42 N         -76.5537   26.0396  -75.8554 N.am      6 UNK        -0.4762 
     43 C         -75.6038   25.8608  -74.9271 C.2       6 UNK         0.5007 
     44 O         -74.5305   26.4651  -74.9248 O.2       6 UNK        -0.5032 
     45 CA        -75.8838   24.8309  -73.8199 C.3       5 UNK         0.0783 
     46 C46       -76.6656   25.4698  -72.6426 C.3       11 UNK        -0.0857 
     47 S47       -75.5309   26.2747  -71.4666 S.3       11 UNK        -0.2512 
     48 C48       -76.6493   26.6901  -70.0906 C.3       11 UNK         0.0225 
     49 N         -76.5722   23.6562  -74.3616 N.am      5 UNK        -0.4615 
     50 C         -75.9882   22.4760  -74.6136 C.2       4 UNK         0.5053 
     51 O         -74.7963   22.2477  -74.4072 O.2       4 UNK        -0.5105 
     52 CA        -76.8703   21.3365  -75.1611 C.3       4 UNK         0.0263 
     53 CB        -77.2590   20.3737  -74.0270 C.3       4 UNK        -0.1981 
     54 N         -78.0886   21.8071  -75.8209 N.am      4 UNK        -0.4224 
     55 C         -78.1331   22.3493  -77.0456 C.2       3 UNK         0.4895 
     56 O         -77.1636   22.4112  -77.8008 O.2       3 UNK        -0.5091 
     57 CA        -79.4833   22.9366  -77.5059 C.3       3 UNK         0.0250 
     58 CB        -80.2098   21.9452  -78.4297 C.3       3 UNK        -0.1996 
     59 N         -80.3933   23.3406  -76.4228 N.am      3 UNK        -0.4254 
     60 C         -80.1057   24.2300  -75.4626 C.2       2 UNK         0.5004 
     61 O         -78.9995   24.7563  -75.3324 O.2       2 UNK        -0.5226 
     62 CA        -81.2095   24.5231  -74.4341 C.3       2 UNK         0.0269 
     63 CB        -81.2566   23.4091  -73.3747 C.3       2 UNK        -0.1926 
     64 N         -80.9937   25.8044  -73.7563 N.am      2 UNK        -0.4687 
     65 C         -81.0900   27.0025  -74.3479 C.2       1 UNK         0.5165 
     66 O         -81.4623   27.1617  -75.5145 O.2       1 UNK        -0.5079 
     67 H67       -78.0370   30.2423  -76.4559 H         1 UNK         0.0900 
     68 H68       -78.0546   31.3052  -75.0460 H         1 UNK         0.0900 
     69 H69       -79.5230   31.0775  -76.0002 H         1 UNK         0.0900 
     70 H70       -80.9287   30.0339  -74.5406 H         1 UNK         0.2959 
     71 H71       -79.9965   27.9314  -72.7605 H         1 UNK         0.1079 
     72 H72       -82.8653   28.8452  -73.3307 H         1 UNK         0.0837 
     73 H73       -82.3752   27.7958  -72.0303 H         1 UNK         0.0837 
     74 H74       -81.1674   30.0092  -69.2792 H         1 UNK         0.0685 
     75 H75       -81.3883   28.3985  -69.9094 H         1 UNK         0.0685 
     76 H76       -79.3419   27.1660  -69.9983 H         1 UNK         0.1434 
     77 H77       -75.5834   29.1440  -70.6005 H         1 UNK         0.1329 
     78 H78       -79.2248   31.4020  -70.6494 H         1 UNK         0.1335 
     79 H79       -77.0883   32.5357  -70.4809 H         1 UNK         0.0680 
     80 H80       -75.5894   31.6638  -70.3484 H         1 UNK         0.0680 
     81 H81       -74.3384   30.6794  -72.0327 H         1 UNK         0.1032 
     82 H82       -73.8988   31.8820  -73.1998 H         1 UNK         0.1032 
     83 H83       -75.6800   29.5172  -73.9560 H         1 UNK         0.0461 
     84 H84       -75.2933   32.1764  -76.6986 H         1 UNK         0.3453 
     85 H85       -75.5903   32.3751  -74.9851 H         1 UNK         0.3453 
     86 H86       -74.0632   28.0548  -73.9363 H         1 UNK         0.2984 
     87 H87       -70.4666   28.3052  -73.8120 H         1 UNK         0.0554 
     88 H88       -70.9379   26.5128  -72.1861 H         1 UNK         0.0847 
     89 H89       -72.6584   26.8862  -72.2019 H         1 UNK         0.0847 
     90 H90       -71.5105   28.0403  -71.5350 H         1 UNK         0.0847 
     91 H91       -72.7459   26.9416  -75.0915 H         1 UNK         0.3141 
     92 H92       -70.5029   24.9988  -77.0770 H         1 UNK         0.0743 
     93 H93       -72.8978   24.2095  -75.3271 H         1 UNK         0.0784 
     94 H94       -72.3098   23.3232  -76.7316 H         1 UNK         0.0784 
     95 H95       -71.3129   23.4527  -75.2916 H         1 UNK         0.0784 
     96 H96       -73.2881   25.6527  -77.3317 H         1 UNK         0.3213 
     97 H97       -72.9118   28.7194  -79.0099 H         1 UNK         0.0855 
     98 H98       -72.4380   27.2450  -80.9199 H         1 UNK         0.0814 
     99 H99       -74.1524   27.6248  -80.8828 H         1 UNK         0.0814 
    100 H100      -73.5809   26.0443  -80.3473 H         1 UNK         0.0814 
    101 H101      -74.6391   28.5553  -77.6902 H         1 UNK         0.3105 
    102 H102      -76.3565   27.9707  -76.5705 H         1 UNK         0.0547 
    103 H103      -77.7829   27.6417  -78.5896 H         1 UNK         0.0837 
    104 H104      -77.9631   25.9347  -78.2039 H         1 UNK         0.0837 
    105 H105      -78.6421   27.1600  -77.1331 H         1 UNK         0.0837 
    106 H106      -77.4307   25.5336  -75.7515 H         1 UNK         0.3020 
    107 H107      -74.9078   24.5141  -73.4442 H         1 UNK         0.1245 
    108 H108      -77.2081   24.6986  -72.0935 H         1 UNK         0.0781 
    109 H109      -77.4191   26.1844  -72.9833 H         1 UNK         0.0781 
    110 H110      -76.0565   26.7729  -69.1788 H         1 UNK         0.0836 
    111 H111      -77.3467   25.8677  -69.9246 H         1 UNK         0.0836 
    112 H112      -77.5419   23.8004  -74.6270 H         1 UNK         0.3022 
    113 H113      -76.2739   20.7819  -75.8891 H         1 UNK         0.0747 
    114 H114      -77.8246   19.5219  -74.4052 H         1 UNK         0.0793 
    115 H115      -76.3719   19.9764  -73.5314 H         1 UNK         0.0793 
    116 H116      -77.8632   20.8684  -73.2653 H         1 UNK         0.0793 
    117 H117      -78.9404   21.7799  -75.2805 H         1 UNK         0.3047 
    118 H118      -79.2552   23.8340  -78.0841 H         1 UNK         0.0822 
    119 H119      -81.1097   22.3865  -78.8585 H         1 UNK         0.0807 
    120 H120      -80.4989   21.0369  -77.8994 H         1 UNK         0.0807 
    121 H121      -79.5712   21.6467  -79.2625 H         1 UNK         0.0807 
    122 H122      -81.3174   22.9325  -76.4432 H         1 UNK         0.2946 
    123 H123      -82.1682   24.5665  -74.9562 H         1 UNK         0.1144 
    124 H124      -81.4602   22.4387  -73.8295 H         1 UNK         0.0793 
    125 H125      -82.0452   23.5902  -72.6439 H         1 UNK         0.0793 
    126 H126      -80.3124   23.3244  -72.8346 H         1 UNK         0.0793 
    127 H127      -80.6740   25.7548  -72.8005 H         1 UNK         0.2896 
@<TRIPOS>BOND
     1    1    2 1    
     2    1   67 1    
     3    1   68 1    
     4    1   69 1    
     5    2    3 2    
     6    2    4 am   BACKBONE|DICT|INTERRES
     7    4    5 1    
     8    4   70 1    
     9    5    6 1    
    10    5   65 1    
    11    5   71 1    
    12    6    7 1    
    13    6   72 1    
    14    6   73 1    
    15    7    8 1    
    16    8    9 1    
    17    8   74 1    
    18    8   75 1    
    19    9   10 ar   
    20    9   14 ar   
    21   10   11 ar   
    22   10   76 1    
    23   11   12 ar   
    24   11   48 1    
    25   12   13 ar   
    26   12   77 1    
    27   13   14 ar   
    28   13   15 1    
    29   14   78 1    
    30   15   16 1    
    31   15   79 1    
    32   15   80 1    
    33   16   17 1    
    34   17   18 1    
    35   17   81 1    
    36   17   82 1    
    37   18   19 1    
    38   18   22 1    
    39   18   83 1    
    40   19   20 am   BACKBONE|DICT|INTERRES
    41   19   21 2    
    42   20   84 1    
    43   20   85 1    
    44   22   23 am   BACKBONE|DICT|INTERRES
    45   22   86 1    
    46   23   24 2    
    47   23   25 1    
    48   25   26 1    
    49   25   27 1    
    50   25   87 1    
    51   26   88 1    
    52   26   89 1    
    53   26   90 1    
    54   27   28 am   BACKBONE|DICT|INTERRES
    55   27   91 1    
    56   28   29 2    
    57   28   30 1    
    58   30   31 1    
    59   30   32 1    
    60   30   92 1    
    61   31   93 1    
    62   31   94 1    
    63   31   95 1    
    64   32   33 am   BACKBONE|DICT|INTERRES
    65   32   96 1    
    66   33   34 2    
    67   33   35 1    
    68   35   36 1    
    69   35   37 1    
    70   35   97 1    
    71   36   98 1    
    72   36   99 1    
    73   36  100 1    
    74   37   38 am   BACKBONE|DICT|INTERRES
    75   37  101 1    
    76   38   39 2    
    77   38   40 1    
    78   40   41 1    
    79   40   42 1    
    80   40  102 1    
    81   41  103 1    
    82   41  104 1    
    83   41  105 1    
    84   42   43 am   BACKBONE|DICT|INTERRES
    85   42  106 1    
    86   43   44 2    
    87   43   45 1    
    88   45   46 1    
    89   45   49 1    
    90   45  107 1    
    91   46   47 1    
    92   46  108 1    
    93   46  109 1    
    94   47   48 1    
    95   48  110 1    
    96   48  111 1    
    97   49   50 am   BACKBONE|DICT|INTERRES
    98   49  112 1    
    99   50   51 2    
   100   50   52 1    
   101   52   53 1    
   102   52   54 1    
   103   52  113 1    
   104   53  114 1    
   105   53  115 1    
   106   53  116 1    
   107   54   55 am   BACKBONE|DICT|INTERRES
   108   54  117 1    
   109   55   56 2    
   110   55   57 1    
   111   57   58 1    
   112   57   59 1    
   113   57  118 1    
   114   58  119 1    
   115   58  120 1    
   116   58  121 1    
   117   59   60 am   BACKBONE|DICT|INTERRES
   118   59  122 1    
   119   60   61 2    
   120   60   62 1    
   121   62   63 1    
   122   62   64 1    
   123   62  123 1    
   124   63  124 1    
   125   63  125 1    
   126   63  126 1    
   127   64   65 am   BACKBONE|DICT|INTERRES
   128   64  127 1    
   129   65   66 2    
@<TRIPOS>SUBSTRUCTURE
     1 UNK         1 GROUP             0       ****    0 ROOT    
