@<TRIPOS>MOLECULE
3R135
127   129    1
SMALL
USER_CHARGES


@<TRIPOS>ATOM
      1 CA        -84.0029   22.7266  -69.8176 C.3       0 UNK        -0.1998 
      2 C         -84.0497   24.0935  -70.4841 C.2       0 UNK         0.4909 
      3 O         -85.0966   24.7424  -70.4778 O.2       0 UNK        -0.5240 
      4 N         -82.9220   24.5396  -71.0520 N.am      1 UNK        -0.4739 
      5 CA        -82.8073   25.7941  -71.8012 C.3       1 UNK         0.0864 
      6 C6        -81.3234   26.2090  -71.9626 C.3       11 UNK        -0.0881 
      7 S7        -81.1246   27.9709  -72.4049 S.3       11 UNK        -0.2682 
      8 C8        -79.8387   28.5155  -71.2361 C.3       11 UNK         0.0289 
      9 C9        -78.4423   28.1211  -71.6994 C.ar      11 UNK        -0.0687 
     10 C10       -77.9180   26.8638  -71.3834 C.ar      11 UNK        -0.0823 
     11 C11       -76.6256   26.5106  -71.7823 C.ar      11 UNK        -0.0830 
     12 C12       -75.8511   27.4321  -72.4925 C.ar      11 UNK        -0.1021 
     13 C13       -76.3665   28.6862  -72.8270 C.ar      11 UNK        -0.0753 
     14 C14       -77.6626   29.0261  -72.4269 C.ar      11 UNK        -0.0933 
     15 C15       -75.5313   29.6657  -73.6358 C.3       11 UNK         0.0166 
     16 S16       -74.3365   30.5556  -72.5938 S.3       11 UNK        -0.2615 
     17 C17       -73.8600   31.9251  -73.7095 C.3       11 UNK        -0.0865 
     18 CA        -72.4719   31.7645  -74.3858 C.3       10 UNK         0.0862 
     19 C         -71.2841   31.9885  -73.4021 C.2       10 UNK         0.5551 
     20 N         -70.2810   31.1203  -73.3448 N.am      10 UNK        -0.7319 
     21 O         -71.2604   32.9880  -72.6878 O.2       10 UNK        -0.5018 
     22 N         -72.3927   30.5260  -75.1759 N.am      10 UNK        -0.4509 
     23 C         -71.7171   30.3863  -76.3231 C.2       10 UNK         0.4899 
     24 O         -71.1526   31.3166  -76.9014 O.2       10 UNK        -0.4839 
     25 CA        -71.6591   28.9608  -76.9138 C.3       9 UNK         0.0222 
     26 CB        -70.5578   28.8050  -77.9832 C.3       9 UNK        -0.1966 
     27 N         -71.5344   27.9042  -75.8999 N.am      9 UNK        -0.4218 
     28 C         -70.5864   27.7953  -74.9536 C.2       9 UNK         0.5020 
     29 O         -69.6870   28.6171  -74.7763 O.2       9 UNK        -0.5274 
     30 CA        -70.6665   26.5678  -74.0379 C.3       8 UNK         0.0270 
     31 CB        -71.7818   26.7478  -72.9960 C.3       8 UNK        -0.1976 
     32 N         -70.9048   25.3516  -74.8157 N.am      8 UNK        -0.4313 
     33 C         -69.9372   24.5625  -75.3042 C.2       8 UNK         0.5041 
     34 O         -68.7365   24.7390  -75.0939 O.2       8 UNK        -0.5577 
     35 CA        -70.3737   23.3648  -76.1693 C.3       7 UNK         0.0284 
     36 CB        -70.4884   22.0956  -75.3090 C.3       7 UNK        -0.1958 
     37 N         -71.6414   23.5902  -76.8673 N.am      7 UNK        -0.4454 
     38 C         -71.8050   24.4338  -77.8960 C.2       7 UNK         0.5089 
     39 O         -70.8831   25.0485  -78.4310 O.2       7 UNK        -0.5125 
     40 CA        -73.2456   24.6486  -78.3973 C.3       6 UNK         0.0408 
     41 CB        -73.5220   23.7681  -79.6260 C.3       6 UNK        -0.1791 
     42 N         -74.2818   24.4075  -77.3833 N.am      6 UNK        -0.4762 
     43 C         -74.4200   25.1081  -76.2489 C.2       6 UNK         0.5007 
     44 O         -73.6465   26.0061  -75.9038 O.2       6 UNK        -0.5032 
     45 CA        -75.5942   24.7354  -75.3248 C.3       5 UNK         0.0783 
     46 C46       -75.0617   24.2974  -73.9360 C.3       11 UNK        -0.0857 
     47 S47       -76.3812   23.9125  -72.7353 S.3       11 UNK        -0.2512 
     48 C48       -76.0659   25.1408  -71.4251 C.3       11 UNK         0.0225 
     49 N         -76.5289   25.8596  -75.2520 N.am      5 UNK        -0.4615 
     50 C         -77.3343   26.2383  -76.2509 C.2       4 UNK         0.5053 
     51 O         -77.4077   25.6548  -77.3352 O.2       4 UNK        -0.5105 
     52 CA        -78.1640   27.5102  -76.0143 C.3       4 UNK         0.0263 
     53 CB        -77.4272   28.7345  -76.5829 C.3       4 UNK        -0.1981 
     54 N         -79.4905   27.4339  -76.6287 N.am      4 UNK        -0.4224 
     55 C         -80.4591   26.5908  -76.2527 C.2       3 UNK         0.4895 
     56 O         -80.3515   25.7755  -75.3339 O.2       3 UNK        -0.5091 
     57 CA        -81.7712   26.6676  -77.0402 C.3       3 UNK         0.0250 
     58 CB        -81.8221   25.5945  -78.1404 C.3       3 UNK        -0.1996 
     59 N         -82.8660   26.4612  -76.1002 N.am      3 UNK        -0.4254 
     60 C         -84.0143   27.1426  -76.0653 C.2       2 UNK         0.5004 
     61 O         -84.3481   27.9576  -76.9265 O.2       2 UNK        -0.5226 
     62 CA        -84.9395   26.9191  -74.8533 C.3       2 UNK         0.0269 
     63 CB        -85.9669   25.8028  -75.1288 C.3       2 UNK        -0.1926 
     64 N         -84.2324   26.7190  -73.5756 N.am      2 UNK        -0.4687 
     65 C         -83.5094   25.6648  -73.1692 C.2       1 UNK         0.5165 
     66 O         -83.3438   24.6436  -73.8410 O.2       1 UNK        -0.5079 
     67 H67       -83.0146   22.2725  -69.8869 H         1 UNK         0.0900 
     68 H68       -84.7186   22.0545  -70.2902 H         1 UNK         0.0900 
     69 H69       -84.2624   22.8142  -68.7629 H         1 UNK         0.0900 
     70 H70       -82.1042   23.9470  -71.0603 H         1 UNK         0.2959 
     71 H71       -83.3179   26.5645  -71.2181 H         1 UNK         0.1079 
     72 H72       -80.8054   26.0319  -71.0201 H         1 UNK         0.0837 
     73 H73       -80.8106   25.5910  -72.7023 H         1 UNK         0.0837 
     74 H74       -80.0389   28.1155  -70.2411 H         1 UNK         0.0685 
     75 H75       -79.9006   29.6004  -71.1381 H         1 UNK         0.0685 
     76 H76       -78.5119   26.1586  -70.8198 H         1 UNK         0.1434 
     77 H77       -74.8452   27.1782  -72.7876 H         1 UNK         0.1329 
     78 H78       -78.0647   29.9980  -72.6786 H         1 UNK         0.1335 
     79 H79       -76.1865   30.3778  -74.1397 H         1 UNK         0.0680 
     80 H80       -74.9888   29.1322  -74.4170 H         1 UNK         0.0680 
     81 H81       -74.6193   32.0451  -74.4832 H         1 UNK         0.1032 
     82 H82       -73.8992   32.8550  -73.1389 H         1 UNK         0.1032 
     83 H83       -72.3932   32.5991  -75.0852 H         1 UNK         0.0461 
     84 H84       -70.2463   30.3058  -73.9486 H         1 UNK         0.3453 
     85 H85       -69.5226   31.2951  -72.7054 H         1 UNK         0.3453 
     86 H86       -72.7950   29.7070  -74.7462 H         1 UNK         0.2984 
     87 H87       -72.6200   28.7968  -77.4037 H         1 UNK         0.0554 
     88 H88       -70.5575   27.8014  -78.4083 H         1 UNK         0.0847 
     89 H89       -69.5661   28.9938  -77.5707 H         1 UNK         0.0847 
     90 H90       -70.7071   29.5033  -78.8076 H         1 UNK         0.0847 
     91 H91       -72.2649   27.1942  -75.9262 H         1 UNK         0.3141 
     92 H92       -69.7187   26.4818  -73.5015 H         1 UNK         0.0743 
     93 H93       -71.6002   27.6287  -72.3783 H         1 UNK         0.0784 
     94 H94       -72.7525   26.8792  -73.4701 H         1 UNK         0.0784 
     95 H95       -71.8455   25.8890  -72.3276 H         1 UNK         0.0784 
     96 H96       -71.8612   25.1699  -75.0907 H         1 UNK         0.3213 
     97 H97       -69.5962   23.2008  -76.9190 H         1 UNK         0.0855 
     98 H98       -71.2599   22.1921  -74.5439 H         1 UNK         0.0814 
     99 H99       -69.5477   21.8864  -74.7973 H         1 UNK         0.0814 
    100 H100      -70.7240   21.2225  -75.9177 H         1 UNK         0.0814 
    101 H101      -72.4538   23.1033  -76.5183 H         1 UNK         0.3105 
    102 H102      -73.3258   25.6938  -78.7040 H         1 UNK         0.0547 
    103 H103      -73.4843   22.7061  -79.3800 H         1 UNK         0.0837 
    104 H104      -74.5013   23.9803  -80.0552 H         1 UNK         0.0837 
    105 H105      -72.7832   23.9470  -80.4086 H         1 UNK         0.0837 
    106 H106      -74.9684   23.7000  -77.6058 H         1 UNK         0.3020 
    107 H107      -76.1301   23.8873  -75.7573 H         1 UNK         0.1245 
    108 H108      -74.3983   25.0519  -73.5137 H         1 UNK         0.0781 
    109 H109      -74.4497   23.3995  -74.0406 H         1 UNK         0.0781 
    110 H110      -74.9965   25.2048  -71.2182 H         1 UNK         0.0836 
    111 H111      -76.5250   24.7858  -70.5012 H         1 UNK         0.0836 
    112 H112      -76.5309   26.3804  -74.3859 H         1 UNK         0.3022 
    113 H113      -78.2987   27.6434  -74.9387 H         1 UNK         0.0747 
    114 H114      -77.9103   29.6640  -76.2812 H         1 UNK         0.0793 
    115 H115      -76.3962   28.7739  -76.2335 H         1 UNK         0.0793 
    116 H116      -77.3898   28.7110  -77.6728 H         1 UNK         0.0793 
    117 H117      -79.6532   28.0401  -77.4194 H         1 UNK         0.3047 
    118 H118      -81.8517   27.6575  -77.4951 H         1 UNK         0.0822 
    119 H119      -81.0031   25.7225  -78.8495 H         1 UNK         0.0807 
    120 H120      -82.7534   25.6502  -78.7044 H         1 UNK         0.0807 
    121 H121      -81.7414   24.5890  -77.7250 H         1 UNK         0.0807 
    122 H122      -82.6676   25.8118  -75.3441 H         1 UNK         0.2946 
    123 H123      -85.5009   27.8471  -74.7295 H         1 UNK         0.1144 
    124 H124      -86.5744   26.0446  -76.0020 H         1 UNK         0.0793 
    125 H125      -86.6469   25.6722  -74.2870 H         1 UNK         0.0793 
    126 H126      -85.4892   24.8433  -75.3278 H         1 UNK         0.0793 
    127 H127      -84.2590   27.5201  -72.9588 H         1 UNK         0.2896 
@<TRIPOS>BOND
     1    1    2 1    
     2    1   67 1    
     3    1   68 1    
     4    1   69 1    
     5    2    3 2    
     6    2    4 am   BACKBONE|DICT|INTERRES
     7    4    5 1    
     8    4   70 1    
     9    5    6 1    
    10    5   65 1    
    11    5   71 1    
    12    6    7 1    
    13    6   72 1    
    14    6   73 1    
    15    7    8 1    
    16    8    9 1    
    17    8   74 1    
    18    8   75 1    
    19    9   10 ar   
    20    9   14 ar   
    21   10   11 ar   
    22   10   76 1    
    23   11   12 ar   
    24   11   48 1    
    25   12   13 ar   
    26   12   77 1    
    27   13   14 ar   
    28   13   15 1    
    29   14   78 1    
    30   15   16 1    
    31   15   79 1    
    32   15   80 1    
    33   16   17 1    
    34   17   18 1    
    35   17   81 1    
    36   17   82 1    
    37   18   19 1    
    38   18   22 1    
    39   18   83 1    
    40   19   20 am   BACKBONE|DICT|INTERRES
    41   19   21 2    
    42   20   84 1    
    43   20   85 1    
    44   22   23 am   BACKBONE|DICT|INTERRES
    45   22   86 1    
    46   23   24 2    
    47   23   25 1    
    48   25   26 1    
    49   25   27 1    
    50   25   87 1    
    51   26   88 1    
    52   26   89 1    
    53   26   90 1    
    54   27   28 am   BACKBONE|DICT|INTERRES
    55   27   91 1    
    56   28   29 2    
    57   28   30 1    
    58   30   31 1    
    59   30   32 1    
    60   30   92 1    
    61   31   93 1    
    62   31   94 1    
    63   31   95 1    
    64   32   33 am   BACKBONE|DICT|INTERRES
    65   32   96 1    
    66   33   34 2    
    67   33   35 1    
    68   35   36 1    
    69   35   37 1    
    70   35   97 1    
    71   36   98 1    
    72   36   99 1    
    73   36  100 1    
    74   37   38 am   BACKBONE|DICT|INTERRES
    75   37  101 1    
    76   38   39 2    
    77   38   40 1    
    78   40   41 1    
    79   40   42 1    
    80   40  102 1    
    81   41  103 1    
    82   41  104 1    
    83   41  105 1    
    84   42   43 am   BACKBONE|DICT|INTERRES
    85   42  106 1    
    86   43   44 2    
    87   43   45 1    
    88   45   46 1    
    89   45   49 1    
    90   45  107 1    
    91   46   47 1    
    92   46  108 1    
    93   46  109 1    
    94   47   48 1    
    95   48  110 1    
    96   48  111 1    
    97   49   50 am   BACKBONE|DICT|INTERRES
    98   49  112 1    
    99   50   51 2    
   100   50   52 1    
   101   52   53 1    
   102   52   54 1    
   103   52  113 1    
   104   53  114 1    
   105   53  115 1    
   106   53  116 1    
   107   54   55 am   BACKBONE|DICT|INTERRES
   108   54  117 1    
   109   55   56 2    
   110   55   57 1    
   111   57   58 1    
   112   57   59 1    
   113   57  118 1    
   114   58  119 1    
   115   58  120 1    
   116   58  121 1    
   117   59   60 am   BACKBONE|DICT|INTERRES
   118   59  122 1    
   119   60   61 2    
   120   60   62 1    
   121   62   63 1    
   122   62   64 1    
   123   62  123 1    
   124   63  124 1    
   125   63  125 1    
   126   63  126 1    
   127   64   65 am   BACKBONE|DICT|INTERRES
   128   64  127 1    
   129   65   66 2    
@<TRIPOS>SUBSTRUCTURE
     1 UNK         1 GROUP             0       ****    0 ROOT    
