@<TRIPOS>MOLECULE
3R135
127   129    1
SMALL
USER_CHARGES


@<TRIPOS>ATOM
      1 CA        -77.9500   26.9816  -69.9050 C.3       0 UNK        -0.1998 
      2 C         -79.4276   26.6318  -69.9278 C.2       0 UNK         0.4909 
      3 O         -79.8914   25.8614  -69.0862 O.2       0 UNK        -0.5240 
      4 N         -80.1723   27.1736  -70.8994 N.am      1 UNK        -0.4739 
      5 CA        -81.6192   26.9823  -71.0676 C.3       1 UNK         0.0864 
      6 C6        -82.2783   28.1806  -71.7974 C.3       11 UNK        -0.0881 
      7 S7        -82.0179   29.7430  -70.8880 S.3       11 UNK        -0.2682 
      8 C8        -81.4411   30.8720  -72.1969 C.3       11 UNK         0.0289 
      9 C9        -80.1461   30.4224  -72.8652 C.ar      11 UNK        -0.0687 
     10 C10       -80.1186   30.1968  -74.2448 C.ar      11 UNK        -0.0823 
     11 C11       -78.9270   29.8435  -74.8823 C.ar      11 UNK        -0.0830 
     12 C12       -77.7578   29.7050  -74.1296 C.ar      11 UNK        -0.1021 
     13 C13       -77.7688   29.9169  -72.7466 C.ar      11 UNK        -0.0753 
     14 C14       -78.9680   30.2812  -72.1227 C.ar      11 UNK        -0.0933 
     15 C15       -76.4846   29.8251  -71.9265 C.3       11 UNK         0.0166 
     16 S16       -75.4115   28.4195  -72.3846 S.3       11 UNK        -0.2615 
     17 C17       -74.0803   28.6241  -71.1546 C.3       11 UNK        -0.0865 
     18 CA        -72.9502   29.5681  -71.6444 C.3       10 UNK         0.0862 
     19 C         -71.9822   29.9279  -70.4781 C.2       10 UNK         0.5551 
     20 N         -70.7009   29.5859  -70.5423 N.am      10 UNK        -0.7319 
     21 O         -72.4042   30.5366  -69.4980 O.2       10 UNK        -0.5018 
     22 N         -72.2855   29.0455  -72.8510 N.am      10 UNK        -0.4509 
     23 C         -71.6078   29.7910  -73.7347 C.2       10 UNK         0.4899 
     24 O         -71.5196   31.0173  -73.6657 O.2       10 UNK        -0.4839 
     25 CA        -70.8786   29.0580  -74.8769 C.3       9 UNK         0.0222 
     26 CB        -69.3549   29.1563  -74.6883 C.3       9 UNK        -0.1966 
     27 N         -71.2502   27.6441  -74.9910 N.am      9 UNK        -0.4218 
     28 C         -72.3028   27.1889  -75.6807 C.2       9 UNK         0.5020 
     29 O         -73.0835   27.9075  -76.3108 O.2       9 UNK        -0.5274 
     30 CA        -72.5383   25.6723  -75.6294 C.3       8 UNK         0.0270 
     31 CB        -73.6873   25.3408  -74.6617 C.3       8 UNK        -0.1976 
     32 N         -72.8661   25.1759  -76.9633 N.am      8 UNK        -0.4313 
     33 C         -71.9689   24.9414  -77.9298 C.2       8 UNK         0.5041 
     34 O         -70.7493   24.9771  -77.7576 O.2       8 UNK        -0.5577 
     35 CA        -72.5278   24.6590  -79.3340 C.3       7 UNK         0.0284 
     36 CB        -73.1788   23.2684  -79.4169 C.3       7 UNK        -0.1958 
     37 N         -73.4887   25.6907  -79.7287 N.am      7 UNK        -0.4454 
     38 C         -73.1541   26.9351  -80.0973 C.2       7 UNK         0.5089 
     39 O         -71.9916   27.2985  -80.2801 O.2       7 UNK        -0.5125 
     40 CA        -74.2840   27.9695  -80.2677 C.3       6 UNK         0.0408 
     41 CB        -74.7469   28.0653  -81.7351 C.3       6 UNK        -0.1791 
     42 N         -75.4073   27.7935  -79.3343 N.am      6 UNK        -0.4762 
     43 C         -76.3485   26.8394  -79.3278 C.2       6 UNK         0.5007 
     44 O         -76.4552   25.9706  -80.1963 O.2       6 UNK        -0.5032 
     45 CA        -77.3022   26.8389  -78.1158 C.3       5 UNK         0.0783 
     46 C46       -78.5503   27.7110  -78.3878 C.3       11 UNK        -0.0857 
     47 S47       -79.4915   27.9912  -76.8517 S.3       11 UNK        -0.2512 
     48 C48       -78.8911   29.6442  -76.3884 C.3       11 UNK         0.0225 
     49 N         -77.6715   25.4781  -77.7104 N.am      5 UNK        -0.4615 
     50 C         -76.8099   24.5316  -77.3246 C.2       4 UNK         0.5053 
     51 O         -75.5925   24.7025  -77.2530 O.2       4 UNK        -0.5105 
     52 CA        -77.4058   23.1758  -76.9200 C.3       4 UNK         0.0263 
     53 CB        -76.5936   22.0074  -77.5059 C.3       4 UNK        -0.1981 
     54 N         -77.4329   23.0612  -75.4632 N.am      4 UNK        -0.4224 
     55 C         -78.3032   23.6981  -74.6703 C.2       3 UNK         0.4895 
     56 O         -79.2257   24.4024  -75.0872 O.2       3 UNK        -0.5091 
     57 CA        -78.0730   23.5471  -73.1569 C.3       3 UNK         0.0250 
     58 CB        -77.0783   24.6117  -72.6629 C.3       3 UNK        -0.1996 
     59 N         -79.3154   23.6727  -72.3940 N.am      3 UNK        -0.4254 
     60 C         -80.3400   22.8079  -72.4215 C.2       2 UNK         0.5004 
     61 O         -80.3225   21.7484  -73.0500 O.2       2 UNK        -0.5226 
     62 CA        -81.5879   23.1666  -71.5902 C.3       2 UNK         0.0269 
     63 CB        -81.7457   22.1980  -70.4059 C.3       2 UNK        -0.1926 
     64 N         -81.5501   24.5380  -71.0732 N.am      2 UNK        -0.4687 
     65 C         -81.9060   25.6320  -71.7583 C.2       1 UNK         0.5165 
     66 O         -82.3957   25.5970  -72.8882 O.2       1 UNK        -0.5079 
     67 H67       -77.7630   27.7881  -69.1968 H         1 UNK         0.0900 
     68 H68       -77.3570   26.1179  -69.6057 H         1 UNK         0.0900 
     69 H69       -77.6091   27.2976  -70.8885 H         1 UNK         0.0900 
     70 H70       -79.7429   27.7984  -71.5683 H         1 UNK         0.2959 
     71 H71       -82.0766   26.9236  -70.0767 H         1 UNK         0.1079 
     72 H72       -83.3547   28.0252  -71.8913 H         1 UNK         0.0837 
     73 H73       -81.8950   28.2684  -72.8154 H         1 UNK         0.0837 
     74 H74       -82.2392   30.9872  -72.9319 H         1 UNK         0.0685 
     75 H75       -81.2848   31.8595  -71.7609 H         1 UNK         0.0685 
     76 H76       -81.0209   30.3117  -74.8302 H         1 UNK         0.1434 
     77 H77       -76.8322   29.4449  -74.6248 H         1 UNK         0.1329 
     78 H78       -78.9867   30.4735  -71.0583 H         1 UNK         0.1335 
     79 H79       -75.9271   30.7536  -72.0543 H         1 UNK         0.0680 
     80 H80       -76.7244   29.7490  -70.8649 H         1 UNK         0.0680 
     81 H81       -74.5210   28.9899  -70.2250 H         1 UNK         0.1032 
     82 H82       -73.6746   27.6385  -70.9195 H         1 UNK         0.1032 
     83 H83       -73.4222   30.5127  -71.9214 H         1 UNK         0.0461 
     84 H84       -70.3439   29.0897  -71.3421 H         1 UNK         0.3453 
     85 H85       -70.0859   29.8294  -69.7818 H         1 UNK         0.3453 
     86 H86       -72.3233   28.0473  -72.9855 H         1 UNK         0.2984 
     87 H87       -71.1350   29.5706  -75.8067 H         1 UNK         0.0554 
     88 H88       -69.0330   30.1974  -74.6350 H         1 UNK         0.0847 
     89 H89       -68.8218   28.6995  -75.5225 H         1 UNK         0.0847 
     90 H90       -69.0255   28.6672  -73.7708 H         1 UNK         0.0847 
     91 H91       -70.6578   26.9800  -74.5119 H         1 UNK         0.3141 
     92 H92       -71.6342   25.1698  -75.2786 H         1 UNK         0.0743 
     93 H93       -74.6100   25.8525  -74.9405 H         1 UNK         0.0784 
     94 H94       -73.8929   24.2704  -74.6422 H         1 UNK         0.0784 
     95 H95       -73.4439   25.6452  -73.6431 H         1 UNK         0.0784 
     96 H96       -73.8603   25.1078  -77.1815 H         1 UNK         0.3213 
     97 H97       -71.6916   24.6780  -80.0367 H         1 UNK         0.0855 
     98 H98       -74.0401   23.1786  -78.7563 H         1 UNK         0.0814 
     99 H99       -72.4691   22.4902  -79.1332 H         1 UNK         0.0814 
    100 H100      -73.5123   23.0483  -80.4310 H         1 UNK         0.0814 
    101 H101      -74.4741   25.4767  -79.6276 H         1 UNK         0.3105 
    102 H102      -73.8513   28.9366  -80.0063 H         1 UNK         0.0547 
    103 H103      -73.9170   28.3524  -82.3819 H         1 UNK         0.0837 
    104 H104      -75.1286   27.1157  -82.1104 H         1 UNK         0.0837 
    105 H105      -75.5279   28.8154  -81.8584 H         1 UNK         0.0837 
    106 H106      -75.3866   28.4325  -78.5503 H         1 UNK         0.3020 
    107 H107      -76.7544   27.2703  -77.2742 H         1 UNK         0.1245 
    108 H108      -79.2044   27.2294  -79.1172 H         1 UNK         0.0781 
    109 H109      -78.2777   28.6754  -78.8218 H         1 UNK         0.0781 
    110 H110      -79.5003   30.4018  -76.8839 H         1 UNK         0.0836 
    111 H111      -77.8721   29.7873  -76.7514 H         1 UNK         0.0836 
    112 H112      -78.6603   25.2751  -77.6908 H         1 UNK         0.3022 
    113 H113      -78.4258   23.1043  -77.3042 H         1 UNK         0.0747 
    114 H114      -77.0571   21.0482  -77.2747 H         1 UNK         0.0793 
    115 H115      -75.5730   21.9870  -77.1212 H         1 UNK         0.0793 
    116 H116      -76.5310   22.0837  -78.5923 H         1 UNK         0.0793 
    117 H117      -76.6809   22.5355  -75.0417 H         1 UNK         0.3047 
    118 H118      -77.6581   22.5558  -72.9616 H         1 UNK         0.0822 
    119 H119      -76.8821   24.5100  -71.5956 H         1 UNK         0.0807 
    120 H120      -77.4450   25.6231  -72.8454 H         1 UNK         0.0807 
    121 H121      -76.1198   24.5197  -73.1742 H         1 UNK         0.0807 
    122 H122      -79.4430   24.5268  -71.8744 H         1 UNK         0.2946 
    123 H123      -82.4548   23.0544  -72.2457 H         1 UNK         0.1144 
    124 H124      -82.6552   22.4061  -69.8420 H         1 UNK         0.0793 
    125 H125      -80.9017   22.2610  -69.7178 H         1 UNK         0.0793 
    126 H126      -81.8099   21.1648  -70.7503 H         1 UNK         0.0793 
    127 H127      -81.1128   24.6779  -70.1666 H         1 UNK         0.2896 
@<TRIPOS>BOND
     1    1    2 1    
     2    1   67 1    
     3    1   68 1    
     4    1   69 1    
     5    2    3 2    
     6    2    4 am   BACKBONE|DICT|INTERRES
     7    4    5 1    
     8    4   70 1    
     9    5    6 1    
    10    5   65 1    
    11    5   71 1    
    12    6    7 1    
    13    6   72 1    
    14    6   73 1    
    15    7    8 1    
    16    8    9 1    
    17    8   74 1    
    18    8   75 1    
    19    9   10 ar   
    20    9   14 ar   
    21   10   11 ar   
    22   10   76 1    
    23   11   12 ar   
    24   11   48 1    
    25   12   13 ar   
    26   12   77 1    
    27   13   14 ar   
    28   13   15 1    
    29   14   78 1    
    30   15   16 1    
    31   15   79 1    
    32   15   80 1    
    33   16   17 1    
    34   17   18 1    
    35   17   81 1    
    36   17   82 1    
    37   18   19 1    
    38   18   22 1    
    39   18   83 1    
    40   19   20 am   BACKBONE|DICT|INTERRES
    41   19   21 2    
    42   20   84 1    
    43   20   85 1    
    44   22   23 am   BACKBONE|DICT|INTERRES
    45   22   86 1    
    46   23   24 2    
    47   23   25 1    
    48   25   26 1    
    49   25   27 1    
    50   25   87 1    
    51   26   88 1    
    52   26   89 1    
    53   26   90 1    
    54   27   28 am   BACKBONE|DICT|INTERRES
    55   27   91 1    
    56   28   29 2    
    57   28   30 1    
    58   30   31 1    
    59   30   32 1    
    60   30   92 1    
    61   31   93 1    
    62   31   94 1    
    63   31   95 1    
    64   32   33 am   BACKBONE|DICT|INTERRES
    65   32   96 1    
    66   33   34 2    
    67   33   35 1    
    68   35   36 1    
    69   35   37 1    
    70   35   97 1    
    71   36   98 1    
    72   36   99 1    
    73   36  100 1    
    74   37   38 am   BACKBONE|DICT|INTERRES
    75   37  101 1    
    76   38   39 2    
    77   38   40 1    
    78   40   41 1    
    79   40   42 1    
    80   40  102 1    
    81   41  103 1    
    82   41  104 1    
    83   41  105 1    
    84   42   43 am   BACKBONE|DICT|INTERRES
    85   42  106 1    
    86   43   44 2    
    87   43   45 1    
    88   45   46 1    
    89   45   49 1    
    90   45  107 1    
    91   46   47 1    
    92   46  108 1    
    93   46  109 1    
    94   47   48 1    
    95   48  110 1    
    96   48  111 1    
    97   49   50 am   BACKBONE|DICT|INTERRES
    98   49  112 1    
    99   50   51 2    
   100   50   52 1    
   101   52   53 1    
   102   52   54 1    
   103   52  113 1    
   104   53  114 1    
   105   53  115 1    
   106   53  116 1    
   107   54   55 am   BACKBONE|DICT|INTERRES
   108   54  117 1    
   109   55   56 2    
   110   55   57 1    
   111   57   58 1    
   112   57   59 1    
   113   57  118 1    
   114   58  119 1    
   115   58  120 1    
   116   58  121 1    
   117   59   60 am   BACKBONE|DICT|INTERRES
   118   59  122 1    
   119   60   61 2    
   120   60   62 1    
   121   62   63 1    
   122   62   64 1    
   123   62  123 1    
   124   63  124 1    
   125   63  125 1    
   126   63  126 1    
   127   64   65 am   BACKBONE|DICT|INTERRES
   128   64  127 1    
   129   65   66 2    
@<TRIPOS>SUBSTRUCTURE
     1 UNK         1 GROUP             0       ****    0 ROOT    
