@<TRIPOS>MOLECULE
3R135
127   129    1
SMALL
USER_CHARGES


@<TRIPOS>ATOM
      1 CA        -80.1481   31.5516  -79.2074 C.3       0 UNK        -0.1998 
      2 C         -79.4657   30.7728  -78.0929 C.2       0 UNK         0.4909 
      3 O         -78.2393   30.7891  -77.9968 O.2       0 UNK        -0.5240 
      4 N         -80.2496   30.0911  -77.2529 N.am      1 UNK        -0.4739 
      5 CA        -79.7904   29.2508  -76.1491 C.3       1 UNK         0.0864 
      6 C6        -79.4246   30.0859  -74.8932 C.3       11 UNK        -0.0881 
      7 S7        -78.2214   29.2275  -73.8290 S.3       11 UNK        -0.2682 
      8 C8        -79.1655   29.0302  -72.2873 C.3       11 UNK         0.0289 
      9 C9        -78.3614   28.2126  -71.2909 C.ar      11 UNK        -0.0687 
     10 C10       -78.5497   26.8313  -71.2029 C.ar      11 UNK        -0.0823 
     11 C11       -77.7427   26.0572  -70.3627 C.ar      11 UNK        -0.0830 
     12 C12       -76.7637   26.6803  -69.5836 C.ar      11 UNK        -0.1021 
     13 C13       -76.5699   28.0631  -69.6606 C.ar      11 UNK        -0.0753 
     14 C14       -77.3828   28.8266  -70.5042 C.ar      11 UNK        -0.0933 
     15 C15       -75.4529   28.7179  -68.8632 C.3       11 UNK         0.0166 
     16 S16       -73.9483   28.9167  -69.8738 S.3       11 UNK        -0.2615 
     17 C17       -74.1141   30.6485  -70.4363 C.3       11 UNK        -0.0865 
     18 CA        -73.4556   30.9705  -71.8047 C.3       10 UNK         0.0862 
     19 C         -71.9048   30.8613  -71.7740 C.2       10 UNK         0.5551 
     20 N         -71.2342   31.8005  -71.1199 N.am      10 UNK        -0.7319 
     21 O         -71.3047   29.9336  -72.3146 O.2       10 UNK        -0.5018 
     22 N         -74.0528   30.1977  -72.9033 N.am      10 UNK        -0.4509 
     23 C         -74.1452   30.6399  -74.1637 C.2       10 UNK         0.4899 
     24 O         -73.8474   31.7845  -74.5125 O.2       10 UNK        -0.4839 
     25 CA        -74.6455   29.6219  -75.2040 C.3       9 UNK         0.0222 
     26 CB        -75.1297   30.2863  -76.5086 C.3       9 UNK        -0.1966 
     27 N         -73.6543   28.5808  -75.4890 N.am      9 UNK        -0.4218 
     28 C         -72.3984   28.7235  -75.9437 C.2       9 UNK         0.5020 
     29 O         -71.8700   29.8008  -76.2202 O.2       9 UNK        -0.5274 
     30 CA        -71.5997   27.4275  -76.1528 C.3       8 UNK         0.0270 
     31 CB        -71.1246   26.8597  -74.8041 C.3       8 UNK        -0.1976 
     32 N         -72.4121   26.4265  -76.8467 N.am      8 UNK        -0.4313 
     33 C         -72.3279   26.1299  -78.1510 C.2       8 UNK         0.5041 
     34 O         -71.4781   26.6000  -78.9089 O.2       8 UNK        -0.5577 
     35 CA        -73.3706   25.1438  -78.7171 C.3       7 UNK         0.0284 
     36 CB        -72.8322   23.7050  -78.6688 C.3       7 UNK        -0.1958 
     37 N         -74.6562   25.1990  -78.0166 N.am      7 UNK        -0.4454 
     38 C         -75.4875   26.2518  -78.0301 C.2       7 UNK         0.5089 
     39 O         -75.3290   27.2323  -78.7563 O.2       7 UNK        -0.5125 
     40 CA        -76.6809   26.2311  -77.0529 C.3       6 UNK         0.0408 
     41 CB        -77.9832   25.9261  -77.8093 C.3       6 UNK        -0.1791 
     42 N         -76.5535   25.2923  -75.9316 N.am      6 UNK        -0.4762 
     43 C         -75.5604   25.2566  -75.0285 C.2       6 UNK         0.5007 
     44 O         -74.5927   26.0163  -75.0470 O.2       6 UNK        -0.5032 
     45 CA        -75.6445   24.1867  -73.9249 C.3       5 UNK         0.0783 
     46 C46       -76.2616   24.8421  -72.6741 C.3       11 UNK        -0.0857 
     47 S47       -76.4588   23.7423  -71.2325 S.3       11 UNK        -0.2512 
     48 C48       -77.8659   24.5375  -70.3752 C.3       11 UNK         0.0225 
     49 N         -76.3771   22.9895  -74.3462 N.am      5 UNK        -0.4615 
     50 C         -76.0340   22.1720  -75.3527 C.2       4 UNK         0.5053 
     51 O         -75.0316   22.3326  -76.0500 O.2       4 UNK        -0.5105 
     52 CA        -76.9740   20.9864  -75.6434 C.3       4 UNK         0.0263 
     53 CB        -76.3814   19.6833  -75.0835 C.3       4 UNK        -0.1981 
     54 N         -78.3212   21.1776  -75.0955 N.am      4 UNK        -0.4224 
     55 C         -79.2172   22.0553  -75.5683 C.2       3 UNK         0.4895 
     56 O         -79.0450   22.7070  -76.6011 O.2       3 UNK        -0.5091 
     57 CA        -80.5123   22.2387  -74.7457 C.3       3 UNK         0.0250 
     58 CB        -80.3327   21.9246  -73.2410 C.3       3 UNK        -0.1996 
     59 N         -81.1109   23.5714  -74.9065 N.am      3 UNK        -0.4254 
     60 C         -80.5265   24.7520  -74.6548 C.2       2 UNK         0.5004 
     61 O         -79.3694   24.8886  -74.2496 O.2       2 UNK        -0.5226 
     62 CA        -81.3960   25.9949  -74.8644 C.3       2 UNK         0.0269 
     63 CB        -82.2372   26.2940  -73.6097 C.3       2 UNK        -0.1926 
     64 N         -80.5273   27.1293  -75.1639 N.am      2 UNK        -0.4687 
     65 C         -80.8849   28.2040  -75.8720 C.2       1 UNK         0.5165 
     66 O         -82.0277   28.3849  -76.3052 O.2       1 UNK        -0.5079 
     67 H67       -79.8068   31.1937  -80.1784 H         1 UNK         0.0900 
     68 H68       -81.2327   31.4506  -79.1702 H         1 UNK         0.0900 
     69 H69       -79.9032   32.6105  -79.1288 H         1 UNK         0.0900 
     70 H70       -81.2532   30.0566  -77.3912 H         1 UNK         0.2959 
     71 H71       -78.9064   28.7113  -76.4976 H         1 UNK         0.1079 
     72 H72       -78.9514   31.0231  -75.1904 H         1 UNK         0.0837 
     73 H73       -80.3135   30.3732  -74.3281 H         1 UNK         0.0837 
     74 H74       -80.1193   28.5445  -72.4986 H         1 UNK         0.0685 
     75 H75       -79.3969   30.0116  -71.8705 H         1 UNK         0.0685 
     76 H76       -79.2832   26.3503  -71.8357 H         1 UNK         0.1434 
     77 H77       -76.1206   26.0799  -68.9544 H         1 UNK         0.1329 
     78 H78       -77.2300   29.8933  -70.5834 H         1 UNK         0.1335 
     79 H79       -75.7797   29.6810  -68.4683 H         1 UNK         0.0680 
     80 H80       -75.2081   28.1049  -67.9943 H         1 UNK         0.0680 
     81 H81       -73.7049   31.2963  -69.6590 H         1 UNK         0.1032 
     82 H82       -75.1713   30.9065  -70.4929 H         1 UNK         0.1032 
     83 H83       -73.6740   32.0234  -71.9957 H         1 UNK         0.0461 
     84 H84       -71.7095   32.5684  -70.6721 H         1 UNK         0.3453 
     85 H85       -70.2285   31.7441  -71.0803 H         1 UNK         0.3453 
     86 H86       -74.2728   29.2348  -72.6942 H         1 UNK         0.2984 
     87 H87       -75.4990   29.1076  -74.7635 H         1 UNK         0.0554 
     88 H88       -75.9103   31.0200  -76.3033 H         1 UNK         0.0847 
     89 H89       -75.5532   29.5530  -77.1947 H         1 UNK         0.0847 
     90 H90       -74.3231   30.8042  -77.0281 H         1 UNK         0.0847 
     91 H91       -73.9674   27.6340  -75.2779 H         1 UNK         0.3141 
     92 H92       -70.7146   27.6701  -76.7449 H         1 UNK         0.0743 
     93 H93       -70.5313   27.5961  -74.2596 H         1 UNK         0.0784 
     94 H94       -71.9595   26.5770  -74.1616 H         1 UNK         0.0784 
     95 H95       -70.4987   25.9786  -74.9456 H         1 UNK         0.0784 
     96 H96       -73.1749   26.0238  -76.3102 H         1 UNK         0.3213 
     97 H97       -73.5439   25.4116  -79.7617 H         1 UNK         0.0855 
     98 H98       -72.6632   23.3708  -77.6441 H         1 UNK         0.0814 
     99 H99       -71.8823   23.6254  -79.1996 H         1 UNK         0.0814 
    100 H100      -73.5245   23.0059  -79.1384 H         1 UNK         0.0814 
    101 H101      -74.8767   24.4251  -77.4029 H         1 UNK         0.3105 
    102 H102      -76.7598   27.2316  -76.6228 H         1 UNK         0.0547 
    103 H103      -77.9593   24.9349  -78.2643 H         1 UNK         0.0837 
    104 H104      -78.1514   26.6498  -78.6081 H         1 UNK         0.0837 
    105 H105      -78.8488   25.9646  -77.1495 H         1 UNK         0.0837 
    106 H106      -77.3156   24.6367  -75.8090 H         1 UNK         0.3020 
    107 H107      -74.6224   23.8811  -73.6909 H         1 UNK         0.1245 
    108 H108      -77.2397   25.2458  -72.9322 H         1 UNK         0.0781 
    109 H109      -75.6578   25.6945  -72.3535 H         1 UNK         0.0781 
    110 H110      -77.9221   24.1637  -69.3520 H         1 UNK         0.0836 
    111 H111      -78.7924   24.2332  -70.8651 H         1 UNK         0.0836 
    112 H112      -77.2204   22.7920  -73.8288 H         1 UNK         0.3022 
    113 H113      -77.0535   20.8899  -76.7285 H         1 UNK         0.0747 
    114 H114      -77.0015   18.8234  -75.3375 H         1 UNK         0.0793 
    115 H115      -75.3889   19.4976  -75.4967 H         1 UNK         0.0793 
    116 H116      -76.2806   19.7178  -73.9978 H         1 UNK         0.0793 
    117 H117      -78.5461   20.6637  -74.2557 H         1 UNK         0.3047 
    118 H118      -81.2333   21.5286  -75.1535 H         1 UNK         0.0822 
    119 H119      -81.2496   22.1270  -72.6870 H         1 UNK         0.0807 
    120 H120      -79.5403   22.5246  -72.7913 H         1 UNK         0.0807 
    121 H121      -80.0941   20.8741  -73.0723 H         1 UNK         0.0807 
    122 H122      -82.0567   23.5755  -75.2620 H         1 UNK         0.2946 
    123 H123      -82.0574   25.8139  -75.7152 H         1 UNK         0.1144 
    124 H124      -82.8684   27.1711  -73.7532 H         1 UNK         0.0793 
    125 H125      -81.6088   26.4735  -72.7369 H         1 UNK         0.0793 
    126 H126      -82.8960   25.4584  -73.3706 H         1 UNK         0.0793 
    127 H127      -79.5727   27.0208  -74.8409 H         1 UNK         0.2896 
@<TRIPOS>BOND
     1    1    2 1    
     2    1   67 1    
     3    1   68 1    
     4    1   69 1    
     5    2    3 2    
     6    2    4 am   BACKBONE|DICT|INTERRES
     7    4    5 1    
     8    4   70 1    
     9    5    6 1    
    10    5   65 1    
    11    5   71 1    
    12    6    7 1    
    13    6   72 1    
    14    6   73 1    
    15    7    8 1    
    16    8    9 1    
    17    8   74 1    
    18    8   75 1    
    19    9   10 ar   
    20    9   14 ar   
    21   10   11 ar   
    22   10   76 1    
    23   11   12 ar   
    24   11   48 1    
    25   12   13 ar   
    26   12   77 1    
    27   13   14 ar   
    28   13   15 1    
    29   14   78 1    
    30   15   16 1    
    31   15   79 1    
    32   15   80 1    
    33   16   17 1    
    34   17   18 1    
    35   17   81 1    
    36   17   82 1    
    37   18   19 1    
    38   18   22 1    
    39   18   83 1    
    40   19   20 am   BACKBONE|DICT|INTERRES
    41   19   21 2    
    42   20   84 1    
    43   20   85 1    
    44   22   23 am   BACKBONE|DICT|INTERRES
    45   22   86 1    
    46   23   24 2    
    47   23   25 1    
    48   25   26 1    
    49   25   27 1    
    50   25   87 1    
    51   26   88 1    
    52   26   89 1    
    53   26   90 1    
    54   27   28 am   BACKBONE|DICT|INTERRES
    55   27   91 1    
    56   28   29 2    
    57   28   30 1    
    58   30   31 1    
    59   30   32 1    
    60   30   92 1    
    61   31   93 1    
    62   31   94 1    
    63   31   95 1    
    64   32   33 am   BACKBONE|DICT|INTERRES
    65   32   96 1    
    66   33   34 2    
    67   33   35 1    
    68   35   36 1    
    69   35   37 1    
    70   35   97 1    
    71   36   98 1    
    72   36   99 1    
    73   36  100 1    
    74   37   38 am   BACKBONE|DICT|INTERRES
    75   37  101 1    
    76   38   39 2    
    77   38   40 1    
    78   40   41 1    
    79   40   42 1    
    80   40  102 1    
    81   41  103 1    
    82   41  104 1    
    83   41  105 1    
    84   42   43 am   BACKBONE|DICT|INTERRES
    85   42  106 1    
    86   43   44 2    
    87   43   45 1    
    88   45   46 1    
    89   45   49 1    
    90   45  107 1    
    91   46   47 1    
    92   46  108 1    
    93   46  109 1    
    94   47   48 1    
    95   48  110 1    
    96   48  111 1    
    97   49   50 am   BACKBONE|DICT|INTERRES
    98   49  112 1    
    99   50   51 2    
   100   50   52 1    
   101   52   53 1    
   102   52   54 1    
   103   52  113 1    
   104   53  114 1    
   105   53  115 1    
   106   53  116 1    
   107   54   55 am   BACKBONE|DICT|INTERRES
   108   54  117 1    
   109   55   56 2    
   110   55   57 1    
   111   57   58 1    
   112   57   59 1    
   113   57  118 1    
   114   58  119 1    
   115   58  120 1    
   116   58  121 1    
   117   59   60 am   BACKBONE|DICT|INTERRES
   118   59  122 1    
   119   60   61 2    
   120   60   62 1    
   121   62   63 1    
   122   62   64 1    
   123   62  123 1    
   124   63  124 1    
   125   63  125 1    
   126   63  126 1    
   127   64   65 am   BACKBONE|DICT|INTERRES
   128   64  127 1    
   129   65   66 2    
@<TRIPOS>SUBSTRUCTURE
     1 UNK         1 GROUP             0       ****    0 ROOT    
