@<TRIPOS>MOLECULE
3R135
127   129    1
SMALL
USER_CHARGES


@<TRIPOS>ATOM
      1 CA        -79.2636   21.5544  -72.8162 C.3       0 UNK        -0.1998 
      2 C         -80.2177   22.6806  -73.1822 C.2       0 UNK         0.4909 
      3 O         -80.7650   22.6846  -74.2853 O.2       0 UNK        -0.5240 
      4 N         -80.4078   23.6443  -72.2717 N.am      1 UNK        -0.4739 
      5 CA        -81.2299   24.8478  -72.4450 C.3       1 UNK         0.0864 
      6 C6        -81.3407   25.6828  -71.1388 C.3       11 UNK        -0.0881 
      7 S7        -79.7763   25.8746  -70.2051 S.3       11 UNK        -0.2682 
      8 C8        -79.9550   27.5348  -69.4832 C.3       11 UNK         0.0289 
      9 C9        -79.1016   28.5682  -70.2047 C.ar      11 UNK        -0.0687 
     10 C10       -79.6262   29.3121  -71.2657 C.ar      11 UNK        -0.0823 
     11 C11       -78.8598   30.3088  -71.8813 C.ar      11 UNK        -0.0830 
     12 C12       -77.5601   30.5570  -71.4281 C.ar      11 UNK        -0.1021 
     13 C13       -77.0180   29.8048  -70.3831 C.ar      11 UNK        -0.0753 
     14 C14       -77.7926   28.8107  -69.7778 C.ar      11 UNK        -0.0933 
     15 C15       -75.6068   30.0772  -69.8866 C.3       11 UNK         0.0166 
     16 S16       -74.3644   29.2170  -70.8994 S.3       11 UNK        -0.2615 
     17 C17       -73.7558   30.5593  -71.9839 C.3       11 UNK        -0.0865 
     18 CA        -73.3794   30.0745  -73.4096 C.3       10 UNK         0.0862 
     19 C         -72.8176   31.2426  -74.2641 C.2       10 UNK         0.5551 
     20 N         -73.4755   31.5876  -75.3611 N.am      10 UNK        -0.7319 
     21 O         -71.8112   31.8559  -73.9137 O.2       10 UNK        -0.5018 
     22 N         -72.4868   28.9108  -73.3544 N.am      10 UNK        -0.4509 
     23 C         -72.0314   28.2010  -74.3933 C.2       10 UNK         0.4899 
     24 O         -72.1898   28.5110  -75.5746 O.2       10 UNK        -0.4839 
     25 CA        -71.3106   26.8850  -74.0668 C.3       9 UNK         0.0222 
     26 CB        -71.2271   26.5477  -72.5590 C.3       9 UNK        -0.1966 
     27 N         -72.0070   25.8218  -74.7849 N.am      9 UNK        -0.4218 
     28 C         -71.4796   24.6427  -75.1299 C.2       9 UNK         0.5020 
     29 O         -70.3330   24.2929  -74.8441 O.2       9 UNK        -0.5274 
     30 CA        -72.3752   23.6815  -75.9306 C.3       8 UNK         0.0270 
     31 CB        -73.1832   22.7739  -74.9881 C.3       8 UNK        -0.1976 
     32 N         -73.2609   24.3563  -76.8912 N.am      8 UNK        -0.4313 
     33 C         -72.8039   24.9231  -78.0181 C.2       8 UNK         0.5041 
     34 O         -71.6068   25.0544  -78.2793 O.2       8 UNK        -0.5577 
     35 CA        -73.8325   25.3635  -79.0643 C.3       7 UNK         0.0284 
     36 CB        -74.5235   24.1463  -79.7062 C.3       7 UNK        -0.1958 
     37 N         -74.8423   26.2816  -78.5304 N.am      7 UNK        -0.4454 
     38 C         -74.9709   27.5486  -78.9513 C.2       7 UNK         0.5089 
     39 O         -74.1489   28.1201  -79.6696 O.2       7 UNK        -0.5125 
     40 CA        -76.2607   28.2970  -78.5891 C.3       6 UNK         0.0408 
     41 CB        -77.3833   27.9025  -79.5627 C.3       6 UNK        -0.1791 
     42 N         -76.7115   28.0763  -77.2168 N.am      6 UNK        -0.4762 
     43 C         -76.3354   28.8385  -76.1800 C.2       6 UNK         0.5007 
     44 O         -75.4847   29.7264  -76.2530 O.2       6 UNK        -0.5032 
     45 CA        -77.0696   28.5984  -74.8446 C.3       5 UNK         0.0783 
     46 C46       -78.4919   29.2174  -74.8804 C.3       11 UNK        -0.0857 
     47 S47       -78.4684   31.0116  -74.5568 S.3       11 UNK        -0.2512 
     48 C48       -79.4461   31.1314  -73.0223 C.3       11 UNK         0.0225 
     49 N         -77.1132   27.1870  -74.4669 N.am      5 UNK        -0.4615 
     50 C         -76.0578   26.3854  -74.2736 C.2       4 UNK         0.5053 
     51 O         -74.8831   26.7294  -74.3844 O.2       4 UNK        -0.5105 
     52 CA        -76.3788   24.9190  -73.9597 C.3       4 UNK         0.0263 
     53 CB        -76.7748   24.7281  -72.4877 C.3       4 UNK        -0.1981 
     54 N         -77.4197   24.4048  -74.8488 N.am      4 UNK        -0.4224 
     55 C         -77.2305   24.1872  -76.1583 C.2       3 UNK         0.4895 
     56 O         -76.1391   24.3054  -76.7175 O.2       3 UNK        -0.5091 
     57 CA        -78.4676   23.8203  -76.9926 C.3       3 UNK         0.0250 
     58 CB        -78.6690   22.2978  -77.0241 C.3       3 UNK        -0.1996 
     59 N         -79.6842   24.4804  -76.5079 N.am      3 UNK        -0.4254 
     60 C         -79.9169   25.7954  -76.6457 C.2       2 UNK         0.5004 
     61 O         -79.1503   26.5626  -77.2251 O.2       2 UNK        -0.5226 
     62 CA        -81.1850   26.3693  -75.9882 C.3       2 UNK         0.0269 
     63 CB        -82.3760   26.2902  -76.9556 C.3       2 UNK        -0.1926 
     64 N         -81.5362   25.7191  -74.7222 N.am      2 UNK        -0.4687 
     65 C         -80.7430   25.6875  -73.6424 C.2       1 UNK         0.5165 
     66 O         -79.6431   26.2374  -73.5973 O.2       1 UNK        -0.5079 
     67 H67       -79.7628   20.5916  -72.9212 H         1 UNK         0.0900 
     68 H68       -78.3986   21.5646  -73.4787 H         1 UNK         0.0900 
     69 H69       -78.9065   21.6408  -71.7901 H         1 UNK         0.0900 
     70 H70       -79.9057   23.6086  -71.3952 H         1 UNK         0.2959 
     71 H71       -82.2377   24.5006  -72.6831 H         1 UNK         0.1079 
     72 H72       -82.0491   25.1952  -70.4673 H         1 UNK         0.0837 
     73 H73       -81.7724   26.6633  -71.3486 H         1 UNK         0.0837 
     74 H74       -81.0019   27.8412  -69.4767 H         1 UNK         0.0685 
     75 H75       -79.6574   27.4854  -68.4347 H         1 UNK         0.0685 
     76 H76       -80.6362   29.1212  -71.6015 H         1 UNK         0.1434 
     77 H77       -76.9694   31.3321  -71.8963 H         1 UNK         0.1329 
     78 H78       -77.3813   28.2328  -68.9613 H         1 UNK         0.1335 
     79 H79       -75.4113   31.1503  -69.8660 H         1 UNK         0.0680 
     80 H80       -75.5039   29.7370  -68.8550 H         1 UNK         0.0680 
     81 H81       -72.8942   31.0182  -71.4946 H         1 UNK         0.1032 
     82 H82       -74.5145   31.3404  -72.0542 H         1 UNK         0.1032 
     83 H83       -74.2959   29.7198  -73.8793 H         1 UNK         0.0461 
     84 H84       -74.2543   31.0192  -75.6873 H         1 UNK         0.3453 
     85 H85       -73.1361   32.3492  -75.9259 H         1 UNK         0.3453 
     86 H86       -72.3120   28.5572  -72.4260 H         1 UNK         0.2984 
     87 H87       -70.2970   26.9750  -74.4626 H         1 UNK         0.0554 
     88 H88       -70.6977   27.3242  -72.0054 H         1 UNK         0.0847 
     89 H89       -70.6803   25.6196  -72.3922 H         1 UNK         0.0847 
     90 H90       -72.2163   26.4277  -72.1143 H         1 UNK         0.0847 
     91 H91       -72.9593   26.0453  -75.0595 H         1 UNK         0.3141 
     92 H92       -71.7165   23.0324  -76.5124 H         1 UNK         0.0743 
     93 H93       -73.5845   23.3227  -74.1383 H         1 UNK         0.0784 
     94 H94       -74.0074   22.2768  -75.5004 H         1 UNK         0.0784 
     95 H95       -72.5418   21.9947  -74.5746 H         1 UNK         0.0784 
     96 H96       -74.2668   24.2821  -76.7499 H         1 UNK         0.3213 
     97 H97       -73.2656   25.8481  -79.8624 H         1 UNK         0.0855 
     98 H98       -75.1195   23.5806  -78.9907 H         1 UNK         0.0814 
     99 H99       -73.7880   23.4599  -80.1280 H         1 UNK         0.0814 
    100 H100      -75.1823   24.4515  -80.5193 H         1 UNK         0.0814 
    101 H101      -75.5276   25.8862  -77.8961 H         1 UNK         0.3105 
    102 H102      -76.0731   29.3637  -78.7319 H         1 UNK         0.0547 
    103 H103      -77.0946   28.1045  -80.5951 H         1 UNK         0.0837 
    104 H104      -77.6251   26.8410  -79.4941 H         1 UNK         0.0837 
    105 H105      -78.2957   28.4652  -79.3651 H         1 UNK         0.0837 
    106 H106      -77.4675   27.4067  -77.0876 H         1 UNK         0.3020 
    107 H107      -76.4983   29.0931  -74.0570 H         1 UNK         0.1245 
    108 H108      -79.1274   28.7442  -74.1321 H         1 UNK         0.0781 
    109 H109      -78.9916   29.0347  -75.8336 H         1 UNK         0.0781 
    110 H110      -80.4719   30.8270  -73.2359 H         1 UNK         0.0836 
    111 H111      -79.4949   32.1772  -72.7161 H         1 UNK         0.0836 
    112 H112      -78.0389   26.8046  -74.2861 H         1 UNK         0.3022 
    113 H113      -75.4770   24.3389  -74.1371 H         1 UNK         0.0747 
    114 H114      -76.9672   23.6802  -72.2590 H         1 UNK         0.0793 
    115 H115      -75.9743   25.0630  -71.8267 H         1 UNK         0.0793 
    116 H116      -77.6643   25.2993  -72.2265 H         1 UNK         0.0793 
    117 H117      -78.3585   24.3614  -74.4800 H         1 UNK         0.3047 
    118 H118      -78.2831   24.1564  -78.0156 H         1 UNK         0.0822 
    119 H119      -79.5160   22.0229  -77.6528 H         1 UNK         0.0807 
    120 H120      -78.8437   21.8884  -76.0292 H         1 UNK         0.0807 
    121 H121      -77.7885   21.7982  -77.4308 H         1 UNK         0.0807 
    122 H122      -80.3338   23.9160  -75.9700 H         1 UNK         0.2946 
    123 H123      -80.9879   27.4220  -75.7742 H         1 UNK         0.1144 
    124 H124      -82.6422   25.2579  -77.1863 H         1 UNK         0.0793 
    125 H125      -82.1446   26.7862  -77.8995 H         1 UNK         0.0793 
    126 H126      -83.2571   26.7811  -76.5419 H         1 UNK         0.0793 
    127 H127      -82.4084   25.2097  -74.7033 H         1 UNK         0.2896 
@<TRIPOS>BOND
     1    1    2 1    
     2    1   67 1    
     3    1   68 1    
     4    1   69 1    
     5    2    3 2    
     6    2    4 am   BACKBONE|DICT|INTERRES
     7    4    5 1    
     8    4   70 1    
     9    5    6 1    
    10    5   65 1    
    11    5   71 1    
    12    6    7 1    
    13    6   72 1    
    14    6   73 1    
    15    7    8 1    
    16    8    9 1    
    17    8   74 1    
    18    8   75 1    
    19    9   10 ar   
    20    9   14 ar   
    21   10   11 ar   
    22   10   76 1    
    23   11   12 ar   
    24   11   48 1    
    25   12   13 ar   
    26   12   77 1    
    27   13   14 ar   
    28   13   15 1    
    29   14   78 1    
    30   15   16 1    
    31   15   79 1    
    32   15   80 1    
    33   16   17 1    
    34   17   18 1    
    35   17   81 1    
    36   17   82 1    
    37   18   19 1    
    38   18   22 1    
    39   18   83 1    
    40   19   20 am   BACKBONE|DICT|INTERRES
    41   19   21 2    
    42   20   84 1    
    43   20   85 1    
    44   22   23 am   BACKBONE|DICT|INTERRES
    45   22   86 1    
    46   23   24 2    
    47   23   25 1    
    48   25   26 1    
    49   25   27 1    
    50   25   87 1    
    51   26   88 1    
    52   26   89 1    
    53   26   90 1    
    54   27   28 am   BACKBONE|DICT|INTERRES
    55   27   91 1    
    56   28   29 2    
    57   28   30 1    
    58   30   31 1    
    59   30   32 1    
    60   30   92 1    
    61   31   93 1    
    62   31   94 1    
    63   31   95 1    
    64   32   33 am   BACKBONE|DICT|INTERRES
    65   32   96 1    
    66   33   34 2    
    67   33   35 1    
    68   35   36 1    
    69   35   37 1    
    70   35   97 1    
    71   36   98 1    
    72   36   99 1    
    73   36  100 1    
    74   37   38 am   BACKBONE|DICT|INTERRES
    75   37  101 1    
    76   38   39 2    
    77   38   40 1    
    78   40   41 1    
    79   40   42 1    
    80   40  102 1    
    81   41  103 1    
    82   41  104 1    
    83   41  105 1    
    84   42   43 am   BACKBONE|DICT|INTERRES
    85   42  106 1    
    86   43   44 2    
    87   43   45 1    
    88   45   46 1    
    89   45   49 1    
    90   45  107 1    
    91   46   47 1    
    92   46  108 1    
    93   46  109 1    
    94   47   48 1    
    95   48  110 1    
    96   48  111 1    
    97   49   50 am   BACKBONE|DICT|INTERRES
    98   49  112 1    
    99   50   51 2    
   100   50   52 1    
   101   52   53 1    
   102   52   54 1    
   103   52  113 1    
   104   53  114 1    
   105   53  115 1    
   106   53  116 1    
   107   54   55 am   BACKBONE|DICT|INTERRES
   108   54  117 1    
   109   55   56 2    
   110   55   57 1    
   111   57   58 1    
   112   57   59 1    
   113   57  118 1    
   114   58  119 1    
   115   58  120 1    
   116   58  121 1    
   117   59   60 am   BACKBONE|DICT|INTERRES
   118   59  122 1    
   119   60   61 2    
   120   60   62 1    
   121   62   63 1    
   122   62   64 1    
   123   62  123 1    
   124   63  124 1    
   125   63  125 1    
   126   63  126 1    
   127   64   65 am   BACKBONE|DICT|INTERRES
   128   64  127 1    
   129   65   66 2    
@<TRIPOS>SUBSTRUCTURE
     1 UNK         1 GROUP             0       ****    0 ROOT    
