@<TRIPOS>MOLECULE
3R135
127   129    1
SMALL
USER_CHARGES


@<TRIPOS>ATOM
      1 CA        -75.6955   21.6085  -71.4471 C.3       0 UNK        -0.1998 
      2 C         -76.6292   22.5252  -72.2239 C.2       0 UNK         0.4909 
      3 O         -76.3217   22.8648  -73.3644 O.2       0 UNK        -0.5240 
      4 N         -77.7455   22.9241  -71.5952 N.am      1 UNK        -0.4739 
      5 CA        -78.8298   23.7665  -72.1157 C.3       1 UNK         0.0864 
      6 C6        -78.3540   25.1501  -72.6391 C.3       11 UNK        -0.0881 
      7 S7        -79.7409   26.3031  -72.9164 S.3       11 UNK        -0.2682 
      8 C8        -79.5965   27.4319  -71.5001 C.3       11 UNK         0.0289 
      9 C9        -78.6146   28.5622  -71.7687 C.ar      11 UNK        -0.0687 
     10 C10       -78.8717   29.4793  -72.7931 C.ar      11 UNK        -0.0823 
     11 C11       -78.0109   30.5575  -73.0101 C.ar      11 UNK        -0.0830 
     12 C12       -76.9095   30.7359  -72.1712 C.ar      11 UNK        -0.1021 
     13 C13       -76.6159   29.8055  -71.1720 C.ar      11 UNK        -0.0753 
     14 C14       -77.4731   28.7173  -70.9752 C.ar      11 UNK        -0.0933 
     15 C15       -75.3817   29.9846  -70.2995 C.3       11 UNK         0.0166 
     16 S16       -73.8493   29.5596  -71.1913 S.3       11 UNK        -0.2615 
     17 C17       -73.4181   31.1305  -72.0258 C.3       11 UNK        -0.0865 
     18 CA        -73.6410   31.1096  -73.5686 C.3       10 UNK         0.0862 
     19 C         -73.4499   32.5105  -74.2244 C.2       10 UNK         0.5551 
     20 N         -72.9559   32.6038  -75.4532 N.am      10 UNK        -0.7319 
     21 O         -73.7813   33.5302  -73.6243 O.2       10 UNK        -0.5018 
     22 N         -72.9417   30.0110  -74.2505 N.am      10 UNK        -0.4509 
     23 C         -71.6203   29.7974  -74.2926 C.2       10 UNK         0.4899 
     24 O         -70.7817   30.5305  -73.7660 O.2       10 UNK        -0.4839 
     25 CA        -71.1749   28.5474  -75.0740 C.3       9 UNK         0.0222 
     26 CB        -69.7048   28.1522  -74.8189 C.3       9 UNK        -0.1966 
     27 N         -72.0850   27.4176  -74.8584 N.am      9 UNK        -0.4218 
     28 C         -72.3177   26.7465  -73.7185 C.2       9 UNK         0.5020 
     29 O         -71.6943   26.9207  -72.6707 O.2       9 UNK        -0.5274 
     30 CA        -73.4481   25.6979  -73.7464 C.3       8 UNK         0.0270 
     31 CB        -74.7000   26.2447  -73.0417 C.3       8 UNK        -0.1976 
     32 N         -73.8136   25.2680  -75.0992 N.am      8 UNK        -0.4313 
     33 C         -73.0261   24.5514  -75.9137 C.2       8 UNK         0.5041 
     34 O         -71.9412   24.0742  -75.5792 O.2       8 UNK        -0.5577 
     35 CA        -73.5078   24.3869  -77.3624 C.3       7 UNK         0.0284 
     36 CB        -74.4442   23.1755  -77.4855 C.3       7 UNK        -0.1958 
     37 N         -74.1742   25.5995  -77.8528 N.am      7 UNK        -0.4454 
     38 C         -73.5249   26.7127  -78.2262 C.2       7 UNK         0.5089 
     39 O         -72.2989   26.8184  -78.2238 O.2       7 UNK        -0.5125 
     40 CA        -74.3735   27.9227  -78.6586 C.3       6 UNK         0.0408 
     41 CB        -74.6565   27.8659  -80.1678 C.3       6 UNK        -0.1791 
     42 N         -75.6385   28.0469  -77.9312 N.am      6 UNK        -0.4762 
     43 C         -75.7452   28.3552  -76.6294 C.2       6 UNK         0.5007 
     44 O         -74.7755   28.5696  -75.9003 O.2       6 UNK        -0.5032 
     45 CA        -77.1746   28.3587  -76.0360 C.3       5 UNK         0.0783 
     46 C46       -77.9173   29.6954  -76.3011 C.3       11 UNK        -0.0857 
     47 S47       -77.1478   31.1761  -75.5571 S.3       11 UNK        -0.2512 
     48 C48       -78.2540   31.5290  -74.1528 C.3       11 UNK         0.0225 
     49 N         -77.9879   27.2323  -76.5203 N.am      5 UNK        -0.4615 
     50 C         -77.6553   25.9350  -76.5056 C.2       4 UNK         0.5053 
     51 O         -76.5917   25.5095  -76.0527 O.2       4 UNK        -0.5105 
     52 CA        -78.6764   24.9719  -77.1391 C.3       4 UNK         0.0263 
     53 CB        -78.1403   23.5379  -77.2882 C.3       4 UNK        -0.1981 
     54 N         -79.9246   24.9439  -76.3752 N.am      4 UNK        -0.4224 
     55 C         -80.9208   25.8314  -76.5145 C.2       3 UNK         0.4895 
     56 O         -80.8555   26.7841  -77.2942 O.2       3 UNK        -0.5091 
     57 CA        -82.1791   25.6871  -75.6332 C.3       3 UNK         0.0250 
     58 CB        -83.4740   25.6990  -76.4727 C.3       3 UNK        -0.1996 
     59 N         -82.1533   24.5598  -74.6912 N.am      3 UNK        -0.4254 
     60 C         -82.2418   23.2442  -74.9429 C.2       2 UNK         0.5004 
     61 O         -82.4218   22.7620  -76.0617 O.2       2 UNK        -0.5226 
     62 CA        -82.0453   22.3235  -73.7174 C.3       2 UNK         0.0269 
     63 CB        -81.8134   20.8457  -74.1013 C.3       2 UNK        -0.1926 
     64 N         -80.9821   22.8108  -72.8200 N.am      2 UNK        -0.4687 
     65 C         -79.6970   23.0190  -73.1529 C.2       1 UNK         0.5165 
     66 O         -79.2290   22.7168  -74.2498 O.2       1 UNK        -0.5079 
     67 H67       -76.0673   21.3970  -70.4447 H         1 UNK         0.0900 
     68 H68       -74.7123   22.0691  -71.3537 H         1 UNK         0.0900 
     69 H69       -75.5789   20.6611  -71.9727 H         1 UNK         0.0900 
     70 H70       -77.9078   22.5749  -70.6605 H         1 UNK         0.2959 
     71 H71       -79.4583   23.9625  -71.2453 H         1 UNK         0.1079 
     72 H72       -77.8073   25.0432  -73.5772 H         1 UNK         0.0837 
     73 H73       -77.6540   25.5987  -71.9331 H         1 UNK         0.0837 
     74 H74       -80.5777   27.8648  -71.3008 H         1 UNK         0.0685 
     75 H75       -79.3245   26.8697  -70.6053 H         1 UNK         0.0685 
     76 H76       -79.7421   29.3479  -73.4213 H         1 UNK         0.1434 
     77 H77       -76.2648   31.5903  -72.3167 H         1 UNK         0.1329 
     78 H78       -77.2621   28.0028  -70.1915 H         1 UNK         0.1335 
     79 H79       -75.4511   29.3433  -69.4195 H         1 UNK         0.0680 
     80 H80       -75.3332   31.0062  -69.9204 H         1 UNK         0.0680 
     81 H81       -73.9888   31.9395  -71.5681 H         1 UNK         0.1032 
     82 H82       -72.3746   31.3554  -71.8013 H         1 UNK         0.1032 
     83 H83       -74.6899   30.8818  -73.7427 H         1 UNK         0.0461 
     84 H84       -72.6978   31.7730  -75.9601 H         1 UNK         0.3453 
     85 H85       -72.8454   33.5120  -75.8755 H         1 UNK         0.3453 
     86 H86       -73.5506   29.3746  -74.7606 H         1 UNK         0.2984 
     87 H87       -71.2649   28.8031  -76.1307 H         1 UNK         0.0554 
     88 H88       -69.4306   27.2604  -75.3824 H         1 UNK         0.0847 
     89 H89       -69.5127   27.9560  -73.7637 H         1 UNK         0.0847 
     90 H90       -69.0287   28.9507  -75.1265 H         1 UNK         0.0847 
     91 H91       -72.6830   27.1942  -75.6423 H         1 UNK         0.3141 
     92 H92       -73.0993   24.8212  -73.1970 H         1 UNK         0.0743 
     93 H93       -75.4851   25.4918  -73.0054 H         1 UNK         0.0784 
     94 H94       -74.4777   26.5325  -72.0133 H         1 UNK         0.0784 
     95 H95       -75.0998   27.1254  -73.5458 H         1 UNK         0.0784 
     96 H96       -74.7355   25.5374  -75.4354 H         1 UNK         0.3213 
     97 H97       -72.6326   24.1997  -77.9889 H         1 UNK         0.0855 
     98 H98       -73.9117   22.2533  -77.2495 H         1 UNK         0.0814 
     99 H99       -74.8385   23.0727  -78.4963 H         1 UNK         0.0814 
    100 H100      -75.2837   23.2435  -76.7935 H         1 UNK         0.0814 
    101 H101      -75.1836   25.6184  -77.7993 H         1 UNK         0.3105 
    102 H102      -73.7865   28.8221  -78.4595 H         1 UNK         0.0547 
    103 H103      -73.7275   27.8002  -80.7360 H         1 UNK         0.0837 
    104 H104      -75.2627   26.9994  -80.4350 H         1 UNK         0.0837 
    105 H105      -75.1784   28.7603  -80.5084 H         1 UNK         0.0837 
    106 H106      -76.4858   27.8759  -78.4533 H         1 UNK         0.3020 
    107 H107      -77.0705   28.2307  -74.9559 H         1 UNK         0.1245 
    108 H108      -78.9432   29.6215  -75.9373 H         1 UNK         0.0781 
    109 H109      -78.0040   29.8715  -77.3749 H         1 UNK         0.0781 
    110 H110      -79.2950   31.5040  -74.4787 H         1 UNK         0.0836 
    111 H111      -78.0694   32.5475  -73.8077 H         1 UNK         0.0836 
    112 H112      -78.9025   27.4636  -76.8924 H         1 UNK         0.3022 
    113 H113      -78.8877   25.3372  -78.1464 H         1 UNK         0.0747 
    114 H114      -78.9121   22.8586  -77.6505 H         1 UNK         0.0793 
    115 H115      -77.3230   23.5075  -78.0081 H         1 UNK         0.0793 
    116 H116      -77.7629   23.1418  -76.3447 H         1 UNK         0.0793 
    117 H117      -80.0051   24.2097  -75.6816 H         1 UNK         0.3047 
    118 H118      -82.1947   26.5814  -75.0082 H         1 UNK         0.0822 
    119 H119      -83.5034   24.8781  -77.1894 H         1 UNK         0.0807 
    120 H120      -83.5604   26.6249  -77.0428 H         1 UNK         0.0807 
    121 H121      -84.3589   25.6265  -75.8405 H         1 UNK         0.0807 
    122 H122      -81.9697   24.8253  -73.7329 H         1 UNK         0.2946 
    123 H123      -82.9790   22.3719  -73.1540 H         1 UNK         0.1144 
    124 H124      -82.6632   20.4500  -74.6588 H         1 UNK         0.0793 
    125 H125      -80.9300   20.7209  -74.7283 H         1 UNK         0.0793 
    126 H126      -81.6882   20.2211  -73.2171 H         1 UNK         0.0793 
    127 H127      -81.2895   23.0890  -71.8975 H         1 UNK         0.2896 
@<TRIPOS>BOND
     1    1    2 1    
     2    1   67 1    
     3    1   68 1    
     4    1   69 1    
     5    2    3 2    
     6    2    4 am   BACKBONE|DICT|INTERRES
     7    4    5 1    
     8    4   70 1    
     9    5    6 1    
    10    5   65 1    
    11    5   71 1    
    12    6    7 1    
    13    6   72 1    
    14    6   73 1    
    15    7    8 1    
    16    8    9 1    
    17    8   74 1    
    18    8   75 1    
    19    9   10 ar   
    20    9   14 ar   
    21   10   11 ar   
    22   10   76 1    
    23   11   12 ar   
    24   11   48 1    
    25   12   13 ar   
    26   12   77 1    
    27   13   14 ar   
    28   13   15 1    
    29   14   78 1    
    30   15   16 1    
    31   15   79 1    
    32   15   80 1    
    33   16   17 1    
    34   17   18 1    
    35   17   81 1    
    36   17   82 1    
    37   18   19 1    
    38   18   22 1    
    39   18   83 1    
    40   19   20 am   BACKBONE|DICT|INTERRES
    41   19   21 2    
    42   20   84 1    
    43   20   85 1    
    44   22   23 am   BACKBONE|DICT|INTERRES
    45   22   86 1    
    46   23   24 2    
    47   23   25 1    
    48   25   26 1    
    49   25   27 1    
    50   25   87 1    
    51   26   88 1    
    52   26   89 1    
    53   26   90 1    
    54   27   28 am   BACKBONE|DICT|INTERRES
    55   27   91 1    
    56   28   29 2    
    57   28   30 1    
    58   30   31 1    
    59   30   32 1    
    60   30   92 1    
    61   31   93 1    
    62   31   94 1    
    63   31   95 1    
    64   32   33 am   BACKBONE|DICT|INTERRES
    65   32   96 1    
    66   33   34 2    
    67   33   35 1    
    68   35   36 1    
    69   35   37 1    
    70   35   97 1    
    71   36   98 1    
    72   36   99 1    
    73   36  100 1    
    74   37   38 am   BACKBONE|DICT|INTERRES
    75   37  101 1    
    76   38   39 2    
    77   38   40 1    
    78   40   41 1    
    79   40   42 1    
    80   40  102 1    
    81   41  103 1    
    82   41  104 1    
    83   41  105 1    
    84   42   43 am   BACKBONE|DICT|INTERRES
    85   42  106 1    
    86   43   44 2    
    87   43   45 1    
    88   45   46 1    
    89   45   49 1    
    90   45  107 1    
    91   46   47 1    
    92   46  108 1    
    93   46  109 1    
    94   47   48 1    
    95   48  110 1    
    96   48  111 1    
    97   49   50 am   BACKBONE|DICT|INTERRES
    98   49  112 1    
    99   50   51 2    
   100   50   52 1    
   101   52   53 1    
   102   52   54 1    
   103   52  113 1    
   104   53  114 1    
   105   53  115 1    
   106   53  116 1    
   107   54   55 am   BACKBONE|DICT|INTERRES
   108   54  117 1    
   109   55   56 2    
   110   55   57 1    
   111   57   58 1    
   112   57   59 1    
   113   57  118 1    
   114   58  119 1    
   115   58  120 1    
   116   58  121 1    
   117   59   60 am   BACKBONE|DICT|INTERRES
   118   59  122 1    
   119   60   61 2    
   120   60   62 1    
   121   62   63 1    
   122   62   64 1    
   123   62  123 1    
   124   63  124 1    
   125   63  125 1    
   126   63  126 1    
   127   64   65 am   BACKBONE|DICT|INTERRES
   128   64  127 1    
   129   65   66 2    
@<TRIPOS>SUBSTRUCTURE
     1 UNK         1 GROUP             0       ****    0 ROOT    
