@<TRIPOS>MOLECULE
3R135
127   129    1
SMALL
USER_CHARGES


@<TRIPOS>ATOM
      1 CA        -85.1328   27.4583  -72.9399 C.3       0 UNK        -0.1998 
      2 C         -83.7846   26.8910  -72.5217 C.2       0 UNK         0.4909 
      3 O         -83.7403   25.8665  -71.8408 O.2       0 UNK        -0.5240 
      4 N         -82.6896   27.5514  -72.9277 N.am      1 UNK        -0.4739 
      5 CA        -81.2956   27.1722  -72.6478 C.3       1 UNK         0.0864 
      6 C6        -80.9578   27.2294  -71.1301 C.3       11 UNK        -0.0881 
      7 S7        -79.2255   27.6962  -70.8022 S.3       11 UNK        -0.2682 
      8 C8        -79.2892   29.5133  -70.8831 C.3       11 UNK         0.0289 
      9 C9        -78.2041   30.0380  -71.8100 C.ar      11 UNK        -0.0687 
     10 C10       -78.4923   30.3036  -73.1519 C.ar      11 UNK        -0.0823 
     11 C11       -77.4867   30.7317  -74.0284 C.ar      11 UNK        -0.0830 
     12 C12       -76.1976   30.9417  -73.5284 C.ar      11 UNK        -0.1021 
     13 C13       -75.9013   30.7025  -72.1835 C.ar      11 UNK        -0.0753 
     14 C14       -76.9072   30.2416  -71.3299 C.ar      11 UNK        -0.0933 
     15 C15       -74.4975   30.9608  -71.6555 C.3       11 UNK         0.0166 
     16 S16       -73.2997   29.7325  -72.2600 S.3       11 UNK        -0.2615 
     17 C17       -73.7823   28.2532  -71.3054 C.3       11 UNK        -0.0865 
     18 CA        -72.7493   27.1044  -71.4563 C.3       10 UNK         0.0862 
     19 C         -73.0521   25.9234  -70.4925 C.2       10 UNK         0.5551 
     20 N         -72.8160   26.1104  -69.2010 N.am      10 UNK        -0.7319 
     21 O         -73.5143   24.8553  -70.8887 O.2       10 UNK        -0.5018 
     22 N         -72.6298   26.6899  -72.8589 N.am      10 UNK        -0.4509 
     23 C         -71.6204   25.9862  -73.3828 C.2       10 UNK         0.4899 
     24 O         -70.6591   25.5712  -72.7339 O.2       10 UNK        -0.4839 
     25 CA        -71.6673   25.7313  -74.9020 C.3       9 UNK         0.0222 
     26 CB        -72.3310   24.3791  -75.2046 C.3       9 UNK        -0.1966 
     27 N         -72.3543   26.7849  -75.6567 N.am      9 UNK        -0.4218 
     28 C         -71.9574   28.0643  -75.7354 C.2       9 UNK         0.5020 
     29 O         -70.9240   28.4943  -75.2176 O.2       9 UNK        -0.5274 
     30 CA        -72.8669   29.0080  -76.5489 C.3       8 UNK         0.0270 
     31 CB        -72.2851   30.4281  -76.7071 C.3       8 UNK        -0.1976 
     32 N         -73.2377   28.4510  -77.8558 N.am      8 UNK        -0.4313 
     33 C         -72.4140   28.0051  -78.8201 C.2       8 UNK         0.5041 
     34 O         -71.1863   28.0989  -78.7677 O.2       8 UNK        -0.5577 
     35 CA        -73.0606   27.3451  -80.0598 C.3       7 UNK         0.0284 
     36 CB        -72.1895   26.2076  -80.6359 C.3       7 UNK        -0.1958 
     37 N         -74.4402   26.8814  -79.8517 N.am      7 UNK        -0.4454 
     38 C         -74.8685   25.9709  -78.9652 C.2       7 UNK         0.5089 
     39 O         -74.1373   25.3542  -78.1885 O.2       7 UNK        -0.5125 
     40 CA        -76.3941   25.7839  -78.8872 C.3       6 UNK         0.0408 
     41 CB        -76.7787   24.3043  -79.0478 C.3       6 UNK        -0.1791 
     42 N         -76.9431   26.2888  -77.6266 N.am      6 UNK        -0.4762 
     43 C         -76.7571   27.5141  -77.1103 C.2       6 UNK         0.5007 
     44 O         -76.1163   28.4076  -77.6661 O.2       6 UNK        -0.5032 
     45 CA        -77.3670   27.7757  -75.7246 C.3       5 UNK         0.0783 
     46 C46       -78.8336   28.2640  -75.8323 C.3       11 UNK        -0.0857 
     47 S47       -79.1236   30.0217  -76.2561 S.3       11 UNK        -0.2512 
     48 C48       -77.7402   30.9697  -75.5193 C.3       11 UNK         0.0225 
     49 N         -77.2718   26.5867  -74.8766 N.am      5 UNK        -0.4615 
     50 C         -76.1741   26.2225  -74.2022 C.2       4 UNK         0.5053 
     51 O         -75.1276   26.8694  -74.2107 O.2       4 UNK        -0.5105 
     52 CA        -76.2480   24.9155  -73.3927 C.3       4 UNK         0.0263 
     53 CB        -76.6533   25.1942  -71.9392 C.3       4 UNK        -0.1981 
     54 N         -77.1868   23.9533  -73.9725 N.am      4 UNK        -0.4224 
     55 C         -76.9166   23.2033  -75.0499 C.2       3 UNK         0.4895 
     56 O         -75.8140   23.1642  -75.5935 O.2       3 UNK        -0.5091 
     57 CA        -78.0645   22.3627  -75.6403 C.3       3 UNK         0.0250 
     58 CB        -77.9634   20.9062  -75.1594 C.3       3 UNK        -0.1996 
     59 N         -79.4116   22.8701  -75.3561 N.am      3 UNK        -0.4254 
     60 C         -79.8891   24.0688  -75.7199 C.2       2 UNK         0.5004 
     61 O         -79.2166   24.9170  -76.3080 O.2       2 UNK        -0.5226 
     62 CA        -81.3518   24.3951  -75.3588 C.3       2 UNK         0.0269 
     63 CB        -82.1179   23.2288  -74.6922 C.3       2 UNK        -0.1926 
     64 N         -81.4712   25.6071  -74.5376 N.am      2 UNK        -0.4687 
     65 C         -80.8915   25.8477  -73.3491 C.2       1 UNK         0.5165 
     66 O         -80.0893   25.0757  -72.8204 O.2       1 UNK        -0.5079 
     67 H67       -85.6798   26.7259  -73.5331 H         1 UNK         0.0900 
     68 H68       -85.7284   27.6966  -72.0591 H         1 UNK         0.0900 
     69 H69       -85.0285   28.3661  -73.5338 H         1 UNK         0.0900 
     70 H70       -82.8057   28.3885  -73.4831 H         1 UNK         0.2959 
     71 H71       -80.7067   27.9471  -73.1353 H         1 UNK         0.1079 
     72 H72       -81.5968   27.9534  -70.6219 H         1 UNK         0.0837 
     73 H73       -81.1672   26.2735  -70.6462 H         1 UNK         0.0837 
     74 H74       -80.2687   29.8499  -71.2260 H         1 UNK         0.0685 
     75 H75       -79.1591   29.9217  -69.8799 H         1 UNK         0.0685 
     76 H76       -79.4995   30.1550  -73.5131 H         1 UNK         0.1434 
     77 H77       -75.4123   31.2846  -74.1888 H         1 UNK         0.1329 
     78 H78       -76.6831   30.0392  -70.2915 H         1 UNK         0.1335 
     79 H79       -74.1737   31.9514  -71.9780 H         1 UNK         0.0680 
     80 H80       -74.4847   30.9774  -70.5646 H         1 UNK         0.0680 
     81 H81       -73.8877   28.5424  -70.2583 H         1 UNK         0.1032 
     82 H82       -74.7710   27.9335  -71.6375 H         1 UNK         0.1032 
     83 H83       -71.7734   27.4969  -71.1629 H         1 UNK         0.0461 
     84 H84       -72.4305   26.9766  -68.8585 H         1 UNK         0.3453 
     85 H85       -73.0116   25.3607  -68.5562 H         1 UNK         0.3453 
     86 H86       -73.4163   26.9307  -73.4568 H         1 UNK         0.2984 
     87 H87       -70.6365   25.6921  -75.2596 H         1 UNK         0.0554 
     88 H88       -71.8381   23.5697  -74.6647 H         1 UNK         0.0847 
     89 H89       -72.2797   24.1399  -76.2671 H         1 UNK         0.0847 
     90 H90       -73.3819   24.3732  -74.9147 H         1 UNK         0.0847 
     91 H91       -73.2059   26.5153  -76.1320 H         1 UNK         0.3141 
     92 H92       -73.7937   29.0956  -75.9787 H         1 UNK         0.0743 
     93 H93       -71.3385   30.4190  -77.2484 H         1 UNK         0.0784 
     94 H94       -72.9736   31.0806  -77.2440 H         1 UNK         0.0784 
     95 H95       -72.1005   30.8834  -75.7331 H         1 UNK         0.0784 
     96 H96       -74.2396   28.3435  -78.0006 H         1 UNK         0.3213 
     97 H97       -73.1171   28.1302  -80.8155 H         1 UNK         0.0855 
     98 H98       -72.0242   25.4156  -79.9046 H         1 UNK         0.0814 
     99 H99       -71.2093   26.5778  -80.9390 H         1 UNK         0.0814 
    100 H100      -72.6500   25.7608  -81.5170 H         1 UNK         0.0814 
    101 H101      -75.1405   27.3602  -80.4024 H         1 UNK         0.3105 
    102 H102      -76.8659   26.3455  -79.6958 H         1 UNK         0.0547 
    103 H103      -76.4276   23.9122  -80.0030 H         1 UNK         0.0837 
    104 H104      -76.3392   23.6879  -78.2629 H         1 UNK         0.0837 
    105 H105      -77.8597   24.1668  -79.0166 H         1 UNK         0.0837 
    106 H106      -77.5294   25.6464  -77.1029 H         1 UNK         0.3020 
    107 H107      -76.7531   28.5407  -75.2533 H         1 UNK         0.1245 
    108 H108      -79.3211   28.1132  -74.8723 H         1 UNK         0.0781 
    109 H109      -79.4006   27.6465  -76.5319 H         1 UNK         0.0781 
    110 H110      -77.9423   32.0316  -75.6639 H         1 UNK         0.0836 
    111 H111      -76.8369   30.7563  -76.0935 H         1 UNK         0.0836 
    112 H112      -78.0653   25.9587  -74.8979 H         1 UNK         0.3022 
    113 H113      -75.2479   24.4773  -73.3813 H         1 UNK         0.0747 
    114 H114      -76.0220   25.9600  -71.4903 H         1 UNK         0.0793 
    115 H115      -77.6823   25.5404  -71.8695 H         1 UNK         0.0793 
    116 H116      -76.5591   24.2987  -71.3251 H         1 UNK         0.0793 
    117 H117      -78.1219   23.9359  -73.5843 H         1 UNK         0.3047 
    118 H118      -77.9393   22.3720  -76.7250 H         1 UNK         0.0822 
    119 H119      -78.7010   20.2720  -75.6517 H         1 UNK         0.0807 
    120 H120      -78.1139   20.8254  -74.0821 H         1 UNK         0.0807 
    121 H121      -76.9806   20.4883  -75.3831 H         1 UNK         0.0807 
    122 H122      -80.0295   22.2482  -74.8550 H         1 UNK         0.2946 
    123 H123      -81.8452   24.6126  -76.3076 H         1 UNK         0.1144 
    124 H124      -83.1594   23.4996  -74.5172 H         1 UNK         0.0793 
    125 H125      -81.6900   22.9503  -73.7282 H         1 UNK         0.0793 
    126 H126      -82.1263   22.3418  -75.3272 H         1 UNK         0.0793 
    127 H127      -82.0959   26.3141  -74.8990 H         1 UNK         0.2896 
@<TRIPOS>BOND
     1    1    2 1    
     2    1   67 1    
     3    1   68 1    
     4    1   69 1    
     5    2    3 2    
     6    2    4 am   BACKBONE|DICT|INTERRES
     7    4    5 1    
     8    4   70 1    
     9    5    6 1    
    10    5   65 1    
    11    5   71 1    
    12    6    7 1    
    13    6   72 1    
    14    6   73 1    
    15    7    8 1    
    16    8    9 1    
    17    8   74 1    
    18    8   75 1    
    19    9   10 ar   
    20    9   14 ar   
    21   10   11 ar   
    22   10   76 1    
    23   11   12 ar   
    24   11   48 1    
    25   12   13 ar   
    26   12   77 1    
    27   13   14 ar   
    28   13   15 1    
    29   14   78 1    
    30   15   16 1    
    31   15   79 1    
    32   15   80 1    
    33   16   17 1    
    34   17   18 1    
    35   17   81 1    
    36   17   82 1    
    37   18   19 1    
    38   18   22 1    
    39   18   83 1    
    40   19   20 am   BACKBONE|DICT|INTERRES
    41   19   21 2    
    42   20   84 1    
    43   20   85 1    
    44   22   23 am   BACKBONE|DICT|INTERRES
    45   22   86 1    
    46   23   24 2    
    47   23   25 1    
    48   25   26 1    
    49   25   27 1    
    50   25   87 1    
    51   26   88 1    
    52   26   89 1    
    53   26   90 1    
    54   27   28 am   BACKBONE|DICT|INTERRES
    55   27   91 1    
    56   28   29 2    
    57   28   30 1    
    58   30   31 1    
    59   30   32 1    
    60   30   92 1    
    61   31   93 1    
    62   31   94 1    
    63   31   95 1    
    64   32   33 am   BACKBONE|DICT|INTERRES
    65   32   96 1    
    66   33   34 2    
    67   33   35 1    
    68   35   36 1    
    69   35   37 1    
    70   35   97 1    
    71   36   98 1    
    72   36   99 1    
    73   36  100 1    
    74   37   38 am   BACKBONE|DICT|INTERRES
    75   37  101 1    
    76   38   39 2    
    77   38   40 1    
    78   40   41 1    
    79   40   42 1    
    80   40  102 1    
    81   41  103 1    
    82   41  104 1    
    83   41  105 1    
    84   42   43 am   BACKBONE|DICT|INTERRES
    85   42  106 1    
    86   43   44 2    
    87   43   45 1    
    88   45   46 1    
    89   45   49 1    
    90   45  107 1    
    91   46   47 1    
    92   46  108 1    
    93   46  109 1    
    94   47   48 1    
    95   48  110 1    
    96   48  111 1    
    97   49   50 am   BACKBONE|DICT|INTERRES
    98   49  112 1    
    99   50   51 2    
   100   50   52 1    
   101   52   53 1    
   102   52   54 1    
   103   52  113 1    
   104   53  114 1    
   105   53  115 1    
   106   53  116 1    
   107   54   55 am   BACKBONE|DICT|INTERRES
   108   54  117 1    
   109   55   56 2    
   110   55   57 1    
   111   57   58 1    
   112   57   59 1    
   113   57  118 1    
   114   58  119 1    
   115   58  120 1    
   116   58  121 1    
   117   59   60 am   BACKBONE|DICT|INTERRES
   118   59  122 1    
   119   60   61 2    
   120   60   62 1    
   121   62   63 1    
   122   62   64 1    
   123   62  123 1    
   124   63  124 1    
   125   63  125 1    
   126   63  126 1    
   127   64   65 am   BACKBONE|DICT|INTERRES
   128   64  127 1    
   129   65   66 2    
@<TRIPOS>SUBSTRUCTURE
     1 UNK         1 GROUP             0       ****    0 ROOT    
