@<TRIPOS>MOLECULE
3R135
127   129    1
SMALL
USER_CHARGES


@<TRIPOS>ATOM
      1 CA        -76.2025   29.4900  -76.0537 C.3       0 UNK        -0.1998 
      2 C         -77.1743   28.5966  -75.2956 C.2       0 UNK         0.4909 
      3 O         -76.9470   27.3897  -75.1921 O.2       0 UNK        -0.5240 
      4 N         -78.2596   29.1849  -74.7747 N.am      1 UNK        -0.4739 
      5 CA        -79.3602   28.4684  -74.1245 C.3       1 UNK         0.0864 
      6 C6        -80.2465   29.4306  -73.2906 C.3       11 UNK        -0.0881 
      7 S7        -81.1872   28.5513  -71.9927 S.3       11 UNK        -0.2682 
      8 C8        -80.2468   28.9478  -70.4854 C.3       11 UNK         0.0289 
      9 C9        -78.7975   28.4907  -70.5705 C.ar      11 UNK        -0.0687 
     10 C10       -78.4710   27.1347  -70.4624 C.ar      11 UNK        -0.0823 
     11 C11       -77.1360   26.7212  -70.5246 C.ar      11 UNK        -0.0830 
     12 C12       -76.1271   27.6744  -70.7045 C.ar      11 UNK        -0.1021 
     13 C13       -76.4435   29.0312  -70.8136 C.ar      11 UNK        -0.0753 
     14 C14       -77.7793   29.4323  -70.7415 C.ar      11 UNK        -0.0933 
     15 C15       -75.3502   30.0741  -70.9820 C.3       11 UNK         0.0166 
     16 S16       -75.3196   30.7276  -72.6778 S.3       11 UNK        -0.2615 
     17 C17       -74.1495   32.1205  -72.4996 C.3       11 UNK        -0.0865 
     18 CA        -72.7480   31.8638  -73.1215 C.3       10 UNK         0.0862 
     19 C         -71.8920   30.8303  -72.3411 C.2       10 UNK         0.5551 
     20 N         -71.6217   31.0806  -71.0672 N.am      10 UNK        -0.7319 
     21 O         -71.4622   29.8099  -72.8772 O.2       10 UNK        -0.5018 
     22 N         -72.8193   31.5161  -74.5421 N.am      10 UNK        -0.4509 
     23 C         -73.0304   32.3594  -75.5560 C.2       10 UNK         0.4899 
     24 O         -73.2397   33.5640  -75.4052 O.2       10 UNK        -0.4839 
     25 CA        -73.0252   31.7585  -76.9784 C.3       9 UNK         0.0222 
     26 CB        -72.4553   32.7363  -78.0278 C.3       9 UNK        -0.1966 
     27 N         -72.3710   30.4450  -77.0743 N.am      9 UNK        -0.4218 
     28 C         -71.0880   30.1364  -76.8378 C.2       9 UNK         0.5020 
     29 O         -70.2319   30.9597  -76.5092 O.2       9 UNK        -0.5274 
     30 CA        -70.7170   28.6437  -76.9668 C.3       8 UNK         0.0270 
     31 CB        -69.2168   28.3844  -76.7301 C.3       8 UNK        -0.1976 
     32 N         -71.4925   27.7815  -76.0658 N.am      8 UNK        -0.4313 
     33 C         -72.7781   27.4426  -76.2245 C.2       8 UNK         0.5041 
     34 O         -73.4872   27.8878  -77.1321 O.2       8 UNK        -0.5577 
     35 CA        -73.3648   26.4713  -75.1853 C.3       7 UNK         0.0284 
     36 CB        -73.6903   27.1895  -73.8651 C.3       7 UNK        -0.1958 
     37 N         -74.5753   25.8158  -75.6820 N.am      7 UNK        -0.4454 
     38 C         -74.5866   24.8493  -76.6092 C.2       7 UNK         0.5089 
     39 O         -73.5672   24.3836  -77.1250 O.2       7 UNK        -0.5125 
     40 CA        -75.9734   24.2850  -76.9826 C.3       6 UNK         0.0408 
     41 CB        -75.9011   23.1389  -78.0123 C.3       6 UNK        -0.1791 
     42 N         -76.7438   23.8660  -75.8058 N.am      6 UNK        -0.4762 
     43 C         -76.3577   23.0191  -74.8362 C.2       6 UNK         0.5007 
     44 O         -75.3012   22.3855  -74.8431 O.2       6 UNK        -0.5032 
     45 CA        -77.3374   22.8389  -73.6638 C.3       5 UNK         0.0783 
     46 C46       -77.5372   24.1518  -72.8605 C.3       11 UNK        -0.0857 
     47 S47       -76.0586   24.5392  -71.8633 S.3       11 UNK        -0.2512 
     48 C48       -76.7712   25.2536  -70.3495 C.3       11 UNK         0.0225 
     49 N         -78.5951   22.3050  -74.1841 N.am      5 UNK        -0.4615 
     50 C         -78.8988   21.0002  -74.2429 C.2       4 UNK         0.5053 
     51 O         -78.2028   20.1136  -73.7474 O.2       4 UNK        -0.5105 
     52 CA        -80.1948   20.6009  -74.9758 C.3       4 UNK         0.0263 
     53 CB        -81.3475   20.4332  -73.9725 C.3       4 UNK        -0.1981 
     54 N         -80.5939   21.5589  -76.0081 N.am      4 UNK        -0.4224 
     55 C         -79.9301   21.7798  -77.1524 C.2       3 UNK         0.4895 
     56 O         -78.9807   21.0960  -77.5346 O.2       3 UNK        -0.5091 
     57 CA        -80.3810   22.9854  -78.0027 C.3       3 UNK         0.0250 
     58 CB        -81.2296   22.5145  -79.1948 C.3       3 UNK        -0.1996 
     59 N         -81.1222   24.0143  -77.2576 N.am      3 UNK        -0.4254 
     60 C         -80.6381   24.7068  -76.2173 C.2       2 UNK         0.5004 
     61 O         -79.5070   24.5398  -75.7540 O.2       2 UNK        -0.5226 
     62 CA        -81.6062   25.6787  -75.5271 C.3       2 UNK         0.0269 
     63 CB        -82.5924   24.9067  -74.6340 C.3       2 UNK        -0.1926 
     64 N         -80.8729   26.6297  -74.6934 N.am      2 UNK        -0.4687 
     65 C         -80.1925   27.6815  -75.1614 C.2       1 UNK         0.5165 
     66 O         -80.2324   28.0485  -76.3400 O.2       1 UNK        -0.5079 
     67 H67       -76.5781   30.5078  -76.1553 H         1 UNK         0.0900 
     68 H68       -76.0301   29.0905  -77.0528 H         1 UNK         0.0900 
     69 H69       -75.2452   29.5353  -75.5378 H         1 UNK         0.0900 
     70 H70       -78.4002   30.1747  -74.9129 H         1 UNK         0.2959 
     71 H71       -78.8993   27.7441  -73.4478 H         1 UNK         0.1079 
     72 H72       -79.6321   30.1947  -72.8127 H         1 UNK         0.0837 
     73 H73       -80.9445   29.9775  -73.9277 H         1 UNK         0.0837 
     74 H74       -80.3053   30.0217  -70.3009 H         1 UNK         0.0685 
     75 H75       -80.7276   28.4663  -69.6327 H         1 UNK         0.0685 
     76 H76       -79.2578   26.4064  -70.3204 H         1 UNK         0.1434 
     77 H77       -75.0942   27.3572  -70.7513 H         1 UNK         0.1329 
     78 H78       -78.0230   30.4829  -70.8224 H         1 UNK         0.1335 
     79 H79       -75.5234   30.8888  -70.2773 H         1 UNK         0.0680 
     80 H80       -74.3727   29.6538  -70.7403 H         1 UNK         0.0680 
     81 H81       -74.0624   32.4060  -71.4504 H         1 UNK         0.1032 
     82 H82       -74.6012   32.9858  -72.9866 H         1 UNK         0.1032 
     83 H83       -72.1825   32.7956  -73.0586 H         1 UNK         0.0461 
     84 H84       -71.0624   30.4200  -70.5510 H         1 UNK         0.3453 
     85 H85       -71.9433   31.9222  -70.6160 H         1 UNK         0.3453 
     86 H86       -72.6000   30.5497  -74.7399 H         1 UNK         0.2984 
     87 H87       -74.0724   31.5844  -77.2290 H         1 UNK         0.0554 
     88 H88       -72.4767   32.3029  -79.0276 H         1 UNK         0.0847 
     89 H89       -71.4252   33.0151  -77.8043 H         1 UNK         0.0847 
     90 H90       -73.0388   33.6571  -78.0644 H         1 UNK         0.0847 
     91 H91       -72.9818   29.6546  -77.2831 H         1 UNK         0.3141 
     92 H92       -70.9415   28.3512  -77.9949 H         1 UNK         0.0743 
     93 H93       -68.9174   28.6454  -75.7141 H         1 UNK         0.0784 
     94 H94       -68.9629   27.3375  -76.8976 H         1 UNK         0.0784 
     95 H95       -68.6050   28.9758  -77.4128 H         1 UNK         0.0784 
     96 H96       -70.9956   27.4201  -75.2635 H         1 UNK         0.3213 
     97 H97       -72.6209   25.6978  -74.9823 H         1 UNK         0.0855 
     98 H98       -72.7937   27.6177  -73.4186 H         1 UNK         0.0814 
     99 H99       -74.1107   26.4999  -73.1337 H         1 UNK         0.0814 
    100 H100      -74.4059   27.9990  -74.0020 H         1 UNK         0.0814 
    101 H101      -75.4643   26.2080  -75.3774 H         1 UNK         0.3105 
    102 H102      -76.5295   25.1064  -77.4372 H         1 UNK         0.0547 
    103 H103      -75.3979   23.4636  -78.9237 H         1 UNK         0.0837 
    104 H104      -75.3518   22.2805  -77.6246 H         1 UNK         0.0837 
    105 H105      -76.8962   22.7978  -78.2962 H         1 UNK         0.0837 
    106 H106      -77.6601   24.3015  -75.7135 H         1 UNK         0.3020 
    107 H107      -76.8979   22.1034  -72.9852 H         1 UNK         0.1245 
    108 H108      -78.3903   24.0408  -72.1899 H         1 UNK         0.0781 
    109 H109      -77.7714   25.0012  -73.5057 H         1 UNK         0.0781 
    110 H110      -76.0343   25.1716  -69.5493 H         1 UNK         0.0836 
    111 H111      -77.6307   24.6642  -70.0269 H         1 UNK         0.0836 
    112 H112      -79.1781   22.9721  -74.6795 H         1 UNK         0.3022 
    113 H113      -80.0164   19.6378  -75.4590 H         1 UNK         0.0747 
    114 H114      -82.2540   20.0791  -74.4640 H         1 UNK         0.0793 
    115 H115      -81.0917   19.7023  -73.2039 H         1 UNK         0.0793 
    116 H116      -81.5826   21.3700  -73.4655 H         1 UNK         0.0793 
    117 H117      -81.3792   22.1550  -75.7945 H         1 UNK         0.3047 
    118 H118      -79.4747   23.4551  -78.3913 H         1 UNK         0.0822 
    119 H119      -81.4711   23.3416  -79.8627 H         1 UNK         0.0807 
    120 H120      -82.1657   22.0587  -78.8696 H         1 UNK         0.0807 
    121 H121      -80.6935   21.7707  -79.7864 H         1 UNK         0.0807 
    122 H122      -82.0670   24.1965  -77.5661 H         1 UNK         0.2946 
    123 H123      -82.1616   26.2266  -76.2920 H         1 UNK         0.1144 
    124 H124      -83.2028   24.2183  -75.2197 H         1 UNK         0.0793 
    125 H125      -83.2771   25.5851  -74.1241 H         1 UNK         0.0793 
    126 H126      -82.0762   24.3200  -73.8726 H         1 UNK         0.0793 
    127 H127      -80.8005   26.4068  -73.7112 H         1 UNK         0.2896 
@<TRIPOS>BOND
     1    1    2 1    
     2    1   67 1    
     3    1   68 1    
     4    1   69 1    
     5    2    3 2    
     6    2    4 am   BACKBONE|DICT|INTERRES
     7    4    5 1    
     8    4   70 1    
     9    5    6 1    
    10    5   65 1    
    11    5   71 1    
    12    6    7 1    
    13    6   72 1    
    14    6   73 1    
    15    7    8 1    
    16    8    9 1    
    17    8   74 1    
    18    8   75 1    
    19    9   10 ar   
    20    9   14 ar   
    21   10   11 ar   
    22   10   76 1    
    23   11   12 ar   
    24   11   48 1    
    25   12   13 ar   
    26   12   77 1    
    27   13   14 ar   
    28   13   15 1    
    29   14   78 1    
    30   15   16 1    
    31   15   79 1    
    32   15   80 1    
    33   16   17 1    
    34   17   18 1    
    35   17   81 1    
    36   17   82 1    
    37   18   19 1    
    38   18   22 1    
    39   18   83 1    
    40   19   20 am   BACKBONE|DICT|INTERRES
    41   19   21 2    
    42   20   84 1    
    43   20   85 1    
    44   22   23 am   BACKBONE|DICT|INTERRES
    45   22   86 1    
    46   23   24 2    
    47   23   25 1    
    48   25   26 1    
    49   25   27 1    
    50   25   87 1    
    51   26   88 1    
    52   26   89 1    
    53   26   90 1    
    54   27   28 am   BACKBONE|DICT|INTERRES
    55   27   91 1    
    56   28   29 2    
    57   28   30 1    
    58   30   31 1    
    59   30   32 1    
    60   30   92 1    
    61   31   93 1    
    62   31   94 1    
    63   31   95 1    
    64   32   33 am   BACKBONE|DICT|INTERRES
    65   32   96 1    
    66   33   34 2    
    67   33   35 1    
    68   35   36 1    
    69   35   37 1    
    70   35   97 1    
    71   36   98 1    
    72   36   99 1    
    73   36  100 1    
    74   37   38 am   BACKBONE|DICT|INTERRES
    75   37  101 1    
    76   38   39 2    
    77   38   40 1    
    78   40   41 1    
    79   40   42 1    
    80   40  102 1    
    81   41  103 1    
    82   41  104 1    
    83   41  105 1    
    84   42   43 am   BACKBONE|DICT|INTERRES
    85   42  106 1    
    86   43   44 2    
    87   43   45 1    
    88   45   46 1    
    89   45   49 1    
    90   45  107 1    
    91   46   47 1    
    92   46  108 1    
    93   46  109 1    
    94   47   48 1    
    95   48  110 1    
    96   48  111 1    
    97   49   50 am   BACKBONE|DICT|INTERRES
    98   49  112 1    
    99   50   51 2    
   100   50   52 1    
   101   52   53 1    
   102   52   54 1    
   103   52  113 1    
   104   53  114 1    
   105   53  115 1    
   106   53  116 1    
   107   54   55 am   BACKBONE|DICT|INTERRES
   108   54  117 1    
   109   55   56 2    
   110   55   57 1    
   111   57   58 1    
   112   57   59 1    
   113   57  118 1    
   114   58  119 1    
   115   58  120 1    
   116   58  121 1    
   117   59   60 am   BACKBONE|DICT|INTERRES
   118   59  122 1    
   119   60   61 2    
   120   60   62 1    
   121   62   63 1    
   122   62   64 1    
   123   62  123 1    
   124   63  124 1    
   125   63  125 1    
   126   63  126 1    
   127   64   65 am   BACKBONE|DICT|INTERRES
   128   64  127 1    
   129   65   66 2    
@<TRIPOS>SUBSTRUCTURE
     1 UNK         1 GROUP             0       ****    0 ROOT    
