@<TRIPOS>MOLECULE
3R135
127   129    1
SMALL
USER_CHARGES


@<TRIPOS>ATOM
      1 CA        -80.6167   25.8973  -68.7044 C.3       0 UNK        -0.1998 
      2 C         -81.4574   26.0115  -69.9674 C.2       0 UNK         0.4909 
      3 O         -82.5296   25.4105  -70.0473 O.2       0 UNK        -0.5240 
      4 N         -80.9813   26.7839  -70.9503 N.am      1 UNK        -0.4739 
      5 CA        -81.6106   26.9482  -72.2630 C.3       1 UNK         0.0864 
      6 C6        -81.1169   28.2313  -72.9716 C.3       11 UNK        -0.0881 
      7 S7        -81.6128   29.7760  -72.1221 S.3       11 UNK        -0.2682 
      8 C8        -80.2571   30.1203  -70.9413 C.3       11 UNK         0.0289 
      9 C9        -78.8747   29.8424  -71.5147 C.ar      11 UNK        -0.0687 
     10 C10       -78.4326   30.5192  -72.6542 C.ar      11 UNK        -0.0823 
     11 C11       -77.2148   30.1810  -73.2483 C.ar      11 UNK        -0.0830 
     12 C12       -76.4248   29.1802  -72.6734 C.ar      11 UNK        -0.1021 
     13 C13       -76.8293   28.5252  -71.5023 C.ar      11 UNK        -0.0753 
     14 C14       -78.0583   28.8684  -70.9326 C.ar      11 UNK        -0.0933 
     15 C15       -76.0105   27.4236  -70.8225 C.3       11 UNK         0.0166 
     16 S16       -74.4305   26.9728  -71.6197 S.3       11 UNK        -0.2615 
     17 C17       -73.2574   28.2023  -70.9394 C.3       11 UNK        -0.0865 
     18 CA        -72.9472   29.3978  -71.8833 C.3       10 UNK         0.0862 
     19 C         -71.7907   30.2649  -71.3056 C.2       10 UNK         0.5551 
     20 N         -70.6311   30.3371  -71.9475 N.am      10 UNK        -0.7319 
     21 O         -71.9518   30.8795  -70.2542 O.2       10 UNK        -0.5018 
     22 N         -72.7708   28.9589  -73.2765 N.am      10 UNK        -0.4509 
     23 C         -72.7905   29.7439  -74.3598 C.2       10 UNK         0.4899 
     24 O         -72.9015   30.9688  -74.3112 O.2       10 UNK        -0.4839 
     25 CA        -72.7490   29.0488  -75.7350 C.3       9 UNK         0.0222 
     26 CB        -71.7558   29.7218  -76.7050 C.3       9 UNK        -0.1966 
     27 N         -72.5555   27.5916  -75.6791 N.am      9 UNK        -0.4218 
     28 C         -71.4482   26.9212  -75.3251 C.2       9 UNK         0.5020 
     29 O         -70.3938   27.4601  -74.9886 O.2       9 UNK        -0.5274 
     30 CA        -71.5357   25.3885  -75.3125 C.3       8 UNK         0.0270 
     31 CB        -71.9151   24.8891  -73.9077 C.3       8 UNK        -0.1976 
     32 N         -72.5126   24.8812  -76.2810 N.am      8 UNK        -0.4313 
     33 C         -72.1960   24.2892  -77.4390 C.2       8 UNK         0.5041 
     34 O         -71.0411   24.1335  -77.8393 O.2       8 UNK        -0.5577 
     35 CA        -73.3587   23.7492  -78.2863 C.3       7 UNK         0.0284 
     36 CB        -73.9226   22.4560  -77.6737 C.3       7 UNK        -0.1958 
     37 N         -74.4470   24.7078  -78.4822 N.am      7 UNK        -0.4454 
     38 C         -74.3843   25.7827  -79.2807 C.2       7 UNK         0.5089 
     39 O         -73.3638   26.1470  -79.8649 O.2       7 UNK        -0.5125 
     40 CA        -75.6887   26.5708  -79.4823 C.3       6 UNK         0.0408 
     41 CB        -76.6364   25.8212  -80.4338 C.3       6 UNK        -0.1791 
     42 N         -76.3617   26.8065  -78.2050 N.am      6 UNK        -0.4762 
     43 C         -76.2350   27.9289  -77.4826 C.2       6 UNK         0.5007 
     44 O         -75.6284   28.9219  -77.8832 O.2       6 UNK        -0.5032 
     45 CA        -76.8461   27.9452  -76.0618 C.3       5 UNK         0.0783 
     46 C46       -78.1311   28.8054  -75.9697 C.3       11 UNK        -0.0857 
     47 S47       -77.8613   30.6133  -75.9440 S.3       11 UNK        -0.2512 
     48 C48       -76.7548   30.8908  -74.5155 C.3       11 UNK         0.0225 
     49 N         -77.0840   26.6052  -75.5195 N.am      5 UNK        -0.4615 
     50 C         -76.1212   25.7462  -75.1636 C.2       4 UNK         0.5053 
     51 O         -74.9190   25.9914  -75.2634 O.2       4 UNK        -0.5105 
     52 CA        -76.5741   24.3533  -74.6940 C.3       4 UNK         0.0263 
     53 CB        -76.8180   24.3505  -73.1781 C.3       4 UNK        -0.1981 
     54 N         -77.7724   23.8629  -75.3861 N.am      4 UNK        -0.4224 
     55 C         -77.8729   23.6919  -76.7135 C.2       3 UNK         0.4895 
     56 O         -76.9580   23.9449  -77.4972 O.2       3 UNK        -0.5091 
     57 CA        -79.2044   23.1753  -77.2842 C.3       3 UNK         0.0250 
     58 CB        -79.0692   21.6983  -77.6877 C.3       3 UNK        -0.1996 
     59 N         -80.3599   23.3272  -76.3950 N.am      3 UNK        -0.4254 
     60 C         -80.8912   24.4931  -76.0011 C.2       2 UNK         0.5004 
     61 O         -80.4223   25.5924  -76.3079 O.2       2 UNK        -0.5226 
     62 CA        -82.1687   24.4227  -75.1353 C.3       2 UNK         0.0269 
     63 CB        -82.4091   23.0450  -74.4733 C.3       2 UNK        -0.1926 
     64 N         -82.2251   25.4897  -74.1281 N.am      2 UNK        -0.4687 
     65 C         -81.3366   25.7152  -73.1493 C.2       1 UNK         0.5165 
     66 O         -80.3307   25.0248  -72.9585 O.2       1 UNK        -0.5079 
     67 H67       -81.1783   26.2638  -67.8455 H         1 UNK         0.0900 
     68 H68       -79.6924   26.4701  -68.7748 H         1 UNK         0.0900 
     69 H69       -80.3555   24.8553  -68.5217 H         1 UNK         0.0900 
     70 H70       -80.0781   27.2204  -70.8519 H         1 UNK         0.2959 
     71 H71       -82.6909   27.0250  -72.1181 H         1 UNK         0.1079 
     72 H72       -80.0387   28.1935  -73.1239 H         1 UNK         0.0837 
     73 H73       -81.5412   28.2912  -73.9759 H         1 UNK         0.0837 
     74 H74       -80.3133   31.1659  -70.6358 H         1 UNK         0.0685 
     75 H75       -80.4273   29.5315  -70.0388 H         1 UNK         0.0685 
     76 H76       -79.0598   31.2752  -73.1071 H         1 UNK         0.1434 
     77 H77       -75.4949   28.9151  -73.1496 H         1 UNK         0.1329 
     78 H78       -78.3869   28.3575  -70.0382 H         1 UNK         0.1335 
     79 H79       -75.8245   27.6982  -69.7834 H         1 UNK         0.0680 
     80 H80       -76.6240   26.5222  -70.7917 H         1 UNK         0.0680 
     81 H81       -72.3368   27.6614  -70.7114 H         1 UNK         0.1032 
     82 H82       -73.6277   28.5675  -69.9798 H         1 UNK         0.1032 
     83 H83       -73.8232   30.0481  -71.8760 H         1 UNK         0.0461 
     84 H84       -69.8871   30.9016  -71.5689 H         1 UNK         0.3453 
     85 H85       -70.4981   29.8331  -72.8104 H         1 UNK         0.3453 
     86 H86       -72.6907   27.9623  -73.4100 H         1 UNK         0.2984 
     87 H87       -73.7443   29.1911  -76.1508 H         1 UNK         0.0554 
     88 H88       -71.7649   29.2358  -77.6806 H         1 UNK         0.0847 
     89 H89       -70.7340   29.6996  -76.3259 H         1 UNK         0.0847 
     90 H90       -72.0162   30.7688  -76.8650 H         1 UNK         0.0847 
     91 H91       -73.3954   27.0394  -75.8264 H         1 UNK         0.3141 
     92 H92       -70.5390   25.0063  -75.5431 H         1 UNK         0.0743 
     93 H93       -72.9120   25.2178  -73.6132 H         1 UNK         0.0784 
     94 H94       -71.8969   23.8003  -73.8591 H         1 UNK         0.0784 
     95 H95       -71.2146   25.2580  -73.1571 H         1 UNK         0.0784 
     96 H96       -73.4916   25.0115  -76.0411 H         1 UNK         0.3213 
     97 H97       -72.9559   23.5006  -79.2709 H         1 UNK         0.0855 
     98 H98       -74.3771   22.6324  -76.6986 H         1 UNK         0.0814 
     99 H99       -73.1363   21.7121  -77.5384 H         1 UNK         0.0814 
    100 H100      -74.6816   22.0115  -78.3179 H         1 UNK         0.0814 
    101 H101      -75.3474   24.4597  -78.0746 H         1 UNK         0.3105 
    102 H102      -75.4354   27.5216  -79.9562 H         1 UNK         0.0547 
    103 H103      -76.1587   25.6454  -81.3986 H         1 UNK         0.0837 
    104 H104      -76.9347   24.8501  -80.0378 H         1 UNK         0.0837 
    105 H105      -77.5425   26.3969  -80.6223 H         1 UNK         0.0837 
    106 H106      -76.8391   26.0127  -77.7946 H         1 UNK         0.3020 
    107 H107      -76.0839   28.3901  -75.4237 H         1 UNK         0.1245 
    108 H108      -78.6764   28.5623  -75.0571 H         1 UNK         0.0781 
    109 H109      -78.8164   28.5643  -76.7847 H         1 UNK         0.0781 
    110 H110      -76.7050   31.9626  -74.3190 H         1 UNK         0.0836 
    111 H111      -75.7407   30.5954  -74.7859 H         1 UNK         0.0836 
    112 H112      -78.0481   26.3083  -75.4481 H         1 UNK         0.3022 
    113 H113      -75.7639   23.6544  -74.9094 H         1 UNK         0.0747 
    114 H114      -77.1317   23.3683  -72.8248 H         1 UNK         0.0793 
    115 H115      -75.9056   24.6081  -72.6400 H         1 UNK         0.0793 
    116 H116      -77.5832   25.0723  -72.8891 H         1 UNK         0.0793 
    117 H117      -78.5795   23.6608  -74.8126 H         1 UNK         0.3047 
    118 H118      -79.4058   23.7569  -78.1864 H         1 UNK         0.0822 
    119 H119      -79.9661   21.3400  -78.1933 H         1 UNK         0.0807 
    120 H120      -78.8902   21.0578  -76.8232 H         1 UNK         0.0807 
    121 H121      -78.2347   21.5558  -78.3764 H         1 UNK         0.0807 
    122 H122      -80.8046   22.4743  -76.0872 H         1 UNK         0.2946 
    123 H123      -82.9974   24.6074  -75.8211 H         1 UNK         0.1144 
    124 H124      -82.5690   22.2641  -75.2176 H         1 UNK         0.0793 
    125 H125      -83.3004   23.0635  -73.8458 H         1 UNK         0.0793 
    126 H126      -81.5719   22.7412  -73.8433 H         1 UNK         0.0793 
    127 H127      -82.9938   26.1376  -74.2328 H         1 UNK         0.2896 
@<TRIPOS>BOND
     1    1    2 1    
     2    1   67 1    
     3    1   68 1    
     4    1   69 1    
     5    2    3 2    
     6    2    4 am   BACKBONE|DICT|INTERRES
     7    4    5 1    
     8    4   70 1    
     9    5    6 1    
    10    5   65 1    
    11    5   71 1    
    12    6    7 1    
    13    6   72 1    
    14    6   73 1    
    15    7    8 1    
    16    8    9 1    
    17    8   74 1    
    18    8   75 1    
    19    9   10 ar   
    20    9   14 ar   
    21   10   11 ar   
    22   10   76 1    
    23   11   12 ar   
    24   11   48 1    
    25   12   13 ar   
    26   12   77 1    
    27   13   14 ar   
    28   13   15 1    
    29   14   78 1    
    30   15   16 1    
    31   15   79 1    
    32   15   80 1    
    33   16   17 1    
    34   17   18 1    
    35   17   81 1    
    36   17   82 1    
    37   18   19 1    
    38   18   22 1    
    39   18   83 1    
    40   19   20 am   BACKBONE|DICT|INTERRES
    41   19   21 2    
    42   20   84 1    
    43   20   85 1    
    44   22   23 am   BACKBONE|DICT|INTERRES
    45   22   86 1    
    46   23   24 2    
    47   23   25 1    
    48   25   26 1    
    49   25   27 1    
    50   25   87 1    
    51   26   88 1    
    52   26   89 1    
    53   26   90 1    
    54   27   28 am   BACKBONE|DICT|INTERRES
    55   27   91 1    
    56   28   29 2    
    57   28   30 1    
    58   30   31 1    
    59   30   32 1    
    60   30   92 1    
    61   31   93 1    
    62   31   94 1    
    63   31   95 1    
    64   32   33 am   BACKBONE|DICT|INTERRES
    65   32   96 1    
    66   33   34 2    
    67   33   35 1    
    68   35   36 1    
    69   35   37 1    
    70   35   97 1    
    71   36   98 1    
    72   36   99 1    
    73   36  100 1    
    74   37   38 am   BACKBONE|DICT|INTERRES
    75   37  101 1    
    76   38   39 2    
    77   38   40 1    
    78   40   41 1    
    79   40   42 1    
    80   40  102 1    
    81   41  103 1    
    82   41  104 1    
    83   41  105 1    
    84   42   43 am   BACKBONE|DICT|INTERRES
    85   42  106 1    
    86   43   44 2    
    87   43   45 1    
    88   45   46 1    
    89   45   49 1    
    90   45  107 1    
    91   46   47 1    
    92   46  108 1    
    93   46  109 1    
    94   47   48 1    
    95   48  110 1    
    96   48  111 1    
    97   49   50 am   BACKBONE|DICT|INTERRES
    98   49  112 1    
    99   50   51 2    
   100   50   52 1    
   101   52   53 1    
   102   52   54 1    
   103   52  113 1    
   104   53  114 1    
   105   53  115 1    
   106   53  116 1    
   107   54   55 am   BACKBONE|DICT|INTERRES
   108   54  117 1    
   109   55   56 2    
   110   55   57 1    
   111   57   58 1    
   112   57   59 1    
   113   57  118 1    
   114   58  119 1    
   115   58  120 1    
   116   58  121 1    
   117   59   60 am   BACKBONE|DICT|INTERRES
   118   59  122 1    
   119   60   61 2    
   120   60   62 1    
   121   62   63 1    
   122   62   64 1    
   123   62  123 1    
   124   63  124 1    
   125   63  125 1    
   126   63  126 1    
   127   64   65 am   BACKBONE|DICT|INTERRES
   128   64  127 1    
   129   65   66 2    
@<TRIPOS>SUBSTRUCTURE
     1 UNK         1 GROUP             0       ****    0 ROOT    
