@<TRIPOS>MOLECULE
3R135
127   129    1
SMALL
USER_CHARGES


@<TRIPOS>ATOM
      1 CA        -83.9445   27.4564  -71.2336 C.3       0 UNK        -0.1998 
      2 C         -84.5858   28.2998  -72.3338 C.2       0 UNK         0.4909 
      3 O         -85.7151   28.7511  -72.1490 O.2       0 UNK        -0.5240 
      4 N         -83.9388   28.5608  -73.4808 N.am      1 UNK        -0.4739 
      5 CA        -82.6152   28.1107  -73.9486 C.3       1 UNK         0.0864 
      6 C6        -81.4263   28.5318  -73.0366 C.3       11 UNK        -0.0881 
      7 S7        -81.4232   30.3140  -72.6383 S.3       11 UNK        -0.2682 
      8 C8        -80.8160   30.3028  -70.9214 C.3       11 UNK         0.0289 
      9 C9        -79.3589   29.8717  -70.8530 C.ar      11 UNK        -0.0687 
     10 C10       -79.0260   28.5439  -70.5656 C.ar      11 UNK        -0.0823 
     11 C11       -77.6890   28.1396  -70.5499 C.ar      11 UNK        -0.0830 
     12 C12       -76.6828   29.0839  -70.7619 C.ar      11 UNK        -0.1021 
     13 C13       -77.0003   30.4075  -71.0776 C.ar      11 UNK        -0.0753 
     14 C14       -78.3428   30.7971  -71.1128 C.ar      11 UNK        -0.0933 
     15 C15       -75.8995   31.4059  -71.4143 C.3       11 UNK         0.0166 
     16 S16       -75.0197   30.9513  -72.9496 S.3       11 UNK        -0.2615 
     17 C17       -73.7439   29.8032  -72.3220 C.3       11 UNK        -0.0865 
     18 CA        -72.3641   30.0443  -72.9850 C.3       10 UNK         0.0862 
     19 C         -71.2000   29.4888  -72.1070 C.2       10 UNK         0.5551 
     20 N         -70.3125   28.6360  -72.6039 N.am      10 UNK        -0.7319 
     21 O         -71.0918   29.8533  -70.9388 O.2       10 UNK        -0.5018 
     22 N         -72.3652   29.5696  -74.3775 N.am      10 UNK        -0.4509 
     23 C         -71.5348   30.0027  -75.3333 C.2       10 UNK         0.4899 
     24 O         -70.7474   30.9392  -75.1862 O.2       10 UNK        -0.4839 
     25 CA        -71.5780   29.2254  -76.6637 C.3       9 UNK         0.0222 
     26 CB        -70.4004   29.5658  -77.6008 C.3       9 UNK        -0.1966 
     27 N         -71.6757   27.7731  -76.4649 N.am      9 UNK        -0.4218 
     28 C         -70.8376   26.9860  -75.7698 C.2       9 UNK         0.5020 
     29 O         -69.8212   27.3992  -75.2108 O.2       9 UNK        -0.5274 
     30 CA        -71.1977   25.4949  -75.6245 C.3       8 UNK         0.0270 
     31 CB        -71.6471   25.1981  -74.1837 C.3       8 UNK        -0.1976 
     32 N         -72.2369   25.0449  -76.5528 N.am      8 UNK        -0.4313 
     33 C         -72.0633   24.8904  -77.8725 C.2       8 UNK         0.5041 
     34 O         -70.9780   25.0169  -78.4409 O.2       8 UNK        -0.5577 
     35 CA        -73.3192   24.5866  -78.7051 C.3       7 UNK         0.0284 
     36 CB        -73.5896   23.0741  -78.7375 C.3       7 UNK        -0.1958 
     37 N         -74.5122   25.2977  -78.2302 N.am      7 UNK        -0.4454 
     38 C         -74.6543   26.6318  -78.2129 C.2       7 UNK         0.5089 
     39 O         -73.7947   27.4151  -78.6140 O.2       7 UNK        -0.5125 
     40 CA        -75.9484   27.1943  -77.6021 C.3       6 UNK         0.0408 
     41 CB        -77.1262   27.0572  -78.5792 C.3       6 UNK        -0.1791 
     42 N         -76.2873   26.5631  -76.3270 N.am      6 UNK        -0.4762 
     43 C         -75.5615   26.6612  -75.2017 C.2       6 UNK         0.5007 
     44 O         -74.5378   27.3406  -75.0921 O.2       6 UNK        -0.5032 
     45 CA        -76.0548   25.8211  -74.0069 C.3       5 UNK         0.0783 
     46 C46       -77.1853   26.5686  -73.2605 C.3       11 UNK        -0.0857 
     47 S47       -77.8410   25.6609  -71.8117 S.3       11 UNK        -0.2512 
     48 C48       -77.3219   26.6721  -70.3803 C.3       11 UNK         0.0225 
     49 N         -76.4613   24.4793  -74.4364 N.am      5 UNK        -0.4615 
     50 C         -75.6356   23.5551  -74.9451 C.2       4 UNK         0.5053 
     51 O         -74.4264   23.7243  -75.0980 O.2       4 UNK        -0.5105 
     52 CA        -76.2784   22.2351  -75.4004 C.3       4 UNK         0.0263 
     53 CB        -76.5205   21.3073  -74.1993 C.3       4 UNK        -0.1981 
     54 N         -77.5346   22.4407  -76.1265 N.am      4 UNK        -0.4224 
     55 C         -77.6330   23.0739  -77.3047 C.2       3 UNK         0.4895 
     56 O         -76.6702   23.5189  -77.9253 O.2       3 UNK        -0.5091 
     57 CA        -79.0447   23.2858  -77.8724 C.3       3 UNK         0.0250 
     58 CB        -79.4701   22.0787  -78.7232 C.3       3 UNK        -0.1996 
     59 N         -80.0568   23.5472  -76.8454 N.am      3 UNK        -0.4254 
     60 C         -80.0497   24.5993  -76.0159 C.2       2 UNK         0.5004 
     61 O         -79.1621   25.4580  -75.9899 O.2       2 UNK        -0.5226 
     62 CA        -81.2129   24.6784  -75.0246 C.3       2 UNK         0.0269 
     63 CB        -80.9238   23.8338  -73.7706 C.3       2 UNK        -0.1926 
     64 N         -81.4200   26.0727  -74.6442 N.am      2 UNK        -0.4687 
     65 C         -82.5993   26.6045  -74.3035 C.2       1 UNK         0.5165 
     66 O         -83.6449   25.9493  -74.2752 O.2       1 UNK        -0.5079 
     67 H67       -83.3670   26.6216  -71.6239 H         1 UNK         0.0900 
     68 H68       -83.2976   28.0749  -70.6135 H         1 UNK         0.0900 
     69 H69       -84.7154   27.0358  -70.5883 H         1 UNK         0.0900 
     70 H70       -84.4362   29.1141  -74.1641 H         1 UNK         0.2959 
     71 H71       -82.4732   28.6197  -74.9035 H         1 UNK         0.1079 
     72 H72       -80.4714   28.3217  -73.5213 H         1 UNK         0.0837 
     73 H73       -81.4207   27.9477  -72.1178 H         1 UNK         0.0837 
     74 H74       -81.4422   29.6524  -70.3095 H         1 UNK         0.0685 
     75 H75       -80.9208   31.3054  -70.5042 H         1 UNK         0.0685 
     76 H76       -79.8045   27.8133  -70.3946 H         1 UNK         0.1434 
     77 H77       -75.6513   28.7689  -70.7358 H         1 UNK         0.1329 
     78 H78       -78.6027   31.8170  -71.3617 H         1 UNK         0.1335 
     79 H79       -75.2036   31.4912  -70.5789 H         1 UNK         0.0680 
     80 H80       -76.3241   32.4014  -71.5522 H         1 UNK         0.0680 
     81 H81       -74.0724   28.7757  -72.4886 H         1 UNK         0.1032 
     82 H82       -73.6742   29.9265  -71.2401 H         1 UNK         0.1032 
     83 H83       -72.1982   31.1233  -73.0064 H         1 UNK         0.0461 
     84 H84       -69.5720   28.3058  -72.0065 H         1 UNK         0.3453 
     85 H85       -70.3331   28.3462  -73.5756 H         1 UNK         0.3453 
     86 H86       -72.9923   28.8019  -74.5903 H         1 UNK         0.2984 
     87 H87       -72.4988   29.5276  -77.1644 H         1 UNK         0.0554 
     88 H88       -70.3893   30.6284  -77.8458 H         1 UNK         0.0847 
     89 H89       -70.4726   29.0181  -78.5406 H         1 UNK         0.0847 
     90 H90       -69.4386   29.3263  -77.1459 H         1 UNK         0.0847 
     91 H91       -72.4891   27.3409  -76.8871 H         1 UNK         0.3141 
     92 H92       -70.2904   24.9211  -75.8244 H         1 UNK         0.0743 
     93 H93       -70.8803   25.4890  -73.4643 H         1 UNK         0.0784 
     94 H94       -72.5577   25.7399  -73.9261 H         1 UNK         0.0784 
     95 H95       -71.8381   24.1346  -74.0390 H         1 UNK         0.0784 
     96 H96       -73.1467   24.8338  -76.1511 H         1 UNK         0.3213 
     97 H97       -73.1236   24.9196  -79.7266 H         1 UNK         0.0855 
     98 H98       -73.8358   22.6876  -77.7478 H         1 UNK         0.0814 
     99 H99       -72.7159   22.5274  -79.0948 H         1 UNK         0.0814 
    100 H100      -74.4167   22.8338  -79.4056 H         1 UNK         0.0814 
    101 H101      -75.2955   24.7173  -77.9331 H         1 UNK         0.3105 
    102 H102      -75.7917   28.2580  -77.4109 H         1 UNK         0.0547 
    103 H103      -78.0357   27.4961  -78.1683 H         1 UNK         0.0837 
    104 H104      -77.3377   26.0151  -78.8179 H         1 UNK         0.0837 
    105 H105      -76.9138   27.5693  -79.5185 H         1 UNK         0.0837 
    106 H106      -77.1337   26.0032  -76.3039 H         1 UNK         0.3020 
    107 H107      -75.2107   25.7070  -73.3230 H         1 UNK         0.1245 
    108 H108      -78.0271   26.7549  -73.9293 H         1 UNK         0.0781 
    109 H109      -76.8309   27.5543  -72.9626 H         1 UNK         0.0781 
    110 H110      -76.2468   26.5530  -70.2375 H         1 UNK         0.0836 
    111 H111      -77.7951   26.2819  -69.4782 H         1 UNK         0.0836 
    112 H112      -77.4469   24.2736  -74.3708 H         1 UNK         0.3022 
    113 H113      -75.5775   21.7418  -76.0773 H         1 UNK         0.0747 
    114 H114      -76.8981   20.3356  -74.5184 H         1 UNK         0.0793 
    115 H115      -75.5931   21.1287  -73.6530 H         1 UNK         0.0793 
    116 H116      -77.2369   21.7319  -73.4947 H         1 UNK         0.0793 
    117 H117      -78.3797   22.1023  -75.6910 H         1 UNK         0.3047 
    118 H118      -79.0048   24.1621  -78.5227 H         1 UNK         0.0822 
    119 H119      -80.4272   22.2561  -79.2142 H         1 UNK         0.0807 
    120 H120      -79.5618   21.1716  -78.1244 H         1 UNK         0.0807 
    121 H121      -78.7389   21.8783  -79.5079 H         1 UNK         0.0807 
    122 H122      -80.8195   22.8871  -76.7888 H         1 UNK         0.2946 
    123 H123      -82.1091   24.2987  -75.5216 H         1 UNK         0.1144 
    124 H124      -80.0308   24.1796  -73.2499 H         1 UNK         0.0793 
    125 H125      -80.7688   22.7851  -74.0268 H         1 UNK         0.0793 
    126 H126      -81.7551   23.8730  -73.0664 H         1 UNK         0.0793 
    127 H127      -80.5954   26.6535  -74.7294 H         1 UNK         0.2896 
@<TRIPOS>BOND
     1    1    2 1    
     2    1   67 1    
     3    1   68 1    
     4    1   69 1    
     5    2    3 2    
     6    2    4 am   BACKBONE|DICT|INTERRES
     7    4    5 1    
     8    4   70 1    
     9    5    6 1    
    10    5   65 1    
    11    5   71 1    
    12    6    7 1    
    13    6   72 1    
    14    6   73 1    
    15    7    8 1    
    16    8    9 1    
    17    8   74 1    
    18    8   75 1    
    19    9   10 ar   
    20    9   14 ar   
    21   10   11 ar   
    22   10   76 1    
    23   11   12 ar   
    24   11   48 1    
    25   12   13 ar   
    26   12   77 1    
    27   13   14 ar   
    28   13   15 1    
    29   14   78 1    
    30   15   16 1    
    31   15   79 1    
    32   15   80 1    
    33   16   17 1    
    34   17   18 1    
    35   17   81 1    
    36   17   82 1    
    37   18   19 1    
    38   18   22 1    
    39   18   83 1    
    40   19   20 am   BACKBONE|DICT|INTERRES
    41   19   21 2    
    42   20   84 1    
    43   20   85 1    
    44   22   23 am   BACKBONE|DICT|INTERRES
    45   22   86 1    
    46   23   24 2    
    47   23   25 1    
    48   25   26 1    
    49   25   27 1    
    50   25   87 1    
    51   26   88 1    
    52   26   89 1    
    53   26   90 1    
    54   27   28 am   BACKBONE|DICT|INTERRES
    55   27   91 1    
    56   28   29 2    
    57   28   30 1    
    58   30   31 1    
    59   30   32 1    
    60   30   92 1    
    61   31   93 1    
    62   31   94 1    
    63   31   95 1    
    64   32   33 am   BACKBONE|DICT|INTERRES
    65   32   96 1    
    66   33   34 2    
    67   33   35 1    
    68   35   36 1    
    69   35   37 1    
    70   35   97 1    
    71   36   98 1    
    72   36   99 1    
    73   36  100 1    
    74   37   38 am   BACKBONE|DICT|INTERRES
    75   37  101 1    
    76   38   39 2    
    77   38   40 1    
    78   40   41 1    
    79   40   42 1    
    80   40  102 1    
    81   41  103 1    
    82   41  104 1    
    83   41  105 1    
    84   42   43 am   BACKBONE|DICT|INTERRES
    85   42  106 1    
    86   43   44 2    
    87   43   45 1    
    88   45   46 1    
    89   45   49 1    
    90   45  107 1    
    91   46   47 1    
    92   46  108 1    
    93   46  109 1    
    94   47   48 1    
    95   48  110 1    
    96   48  111 1    
    97   49   50 am   BACKBONE|DICT|INTERRES
    98   49  112 1    
    99   50   51 2    
   100   50   52 1    
   101   52   53 1    
   102   52   54 1    
   103   52  113 1    
   104   53  114 1    
   105   53  115 1    
   106   53  116 1    
   107   54   55 am   BACKBONE|DICT|INTERRES
   108   54  117 1    
   109   55   56 2    
   110   55   57 1    
   111   57   58 1    
   112   57   59 1    
   113   57  118 1    
   114   58  119 1    
   115   58  120 1    
   116   58  121 1    
   117   59   60 am   BACKBONE|DICT|INTERRES
   118   59  122 1    
   119   60   61 2    
   120   60   62 1    
   121   62   63 1    
   122   62   64 1    
   123   62  123 1    
   124   63  124 1    
   125   63  125 1    
   126   63  126 1    
   127   64   65 am   BACKBONE|DICT|INTERRES
   128   64  127 1    
   129   65   66 2    
@<TRIPOS>SUBSTRUCTURE
     1 UNK         1 GROUP             0       ****    0 ROOT    
