@<TRIPOS>MOLECULE
3R135
127   129    1
SMALL
USER_CHARGES


@<TRIPOS>ATOM
      1 CA        -86.4110   27.5898  -71.9781 C.3       0 UNK        -0.1998 
      2 C         -85.0811   28.3227  -72.0697 C.2       0 UNK         0.4909 
      3 O         -85.0419   29.5428  -71.9081 O.2       0 UNK        -0.5240 
      4 N         -83.9908   27.5877  -72.3262 N.am      1 UNK        -0.4739 
      5 CA        -82.6291   28.1245  -72.4502 C.3       1 UNK         0.0864 
      6 C6        -81.5649   27.0002  -72.4010 C.3       11 UNK        -0.0881 
      7 S7        -81.4079   26.2483  -70.7465 S.3       11 UNK        -0.2682 
      8 C8        -80.2715   27.4012  -69.9031 C.3       11 UNK         0.0289 
      9 C9        -78.8544   27.3574  -70.4617 C.ar      11 UNK        -0.0687 
     10 C10       -77.9303   26.4220  -69.9812 C.ar      11 UNK        -0.0823 
     11 C11       -76.6204   26.3983  -70.4743 C.ar      11 UNK        -0.0830 
     12 C12       -76.2484   27.3049  -71.4697 C.ar      11 UNK        -0.1021 
     13 C13       -77.1602   28.2443  -71.9586 C.ar      11 UNK        -0.0753 
     14 C14       -78.4565   28.2753  -71.4395 C.ar      11 UNK        -0.0933 
     15 C15       -76.7453   29.2317  -73.0387 C.3       11 UNK         0.0166 
     16 S16       -77.2281   28.6290  -74.6833 S.3       11 UNK        -0.2615 
     17 C17       -76.5414   29.9147  -75.7808 C.3       11 UNK        -0.0865 
     18 CA        -75.2708   29.4360  -76.5350 C.3       10 UNK         0.0862 
     19 C         -74.8878   30.4233  -77.6775 C.2       10 UNK         0.5551 
     20 N         -73.7003   31.0174  -77.6796 N.am      10 UNK        -0.7319 
     21 O         -75.6842   30.6490  -78.5852 O.2       10 UNK        -0.5018 
     22 N         -74.1734   29.1311  -75.6012 N.am      10 UNK        -0.4509 
     23 C         -73.1619   28.2922  -75.8502 C.2       10 UNK         0.4899 
     24 O         -73.0364   27.6447  -76.8920 O.2       10 UNK        -0.4839 
     25 CA        -72.1420   28.1417  -74.7114 C.3       9 UNK         0.0222 
     26 CB        -72.6841   27.1964  -73.6297 C.3       9 UNK        -0.1966 
     27 N         -70.8610   27.6306  -75.1980 N.am      9 UNK        -0.4218 
     28 C         -69.8812   28.4006  -75.6935 C.2       9 UNK         0.5020 
     29 O         -69.9625   29.6270  -75.7847 O.2       9 UNK        -0.5274 
     30 CA        -68.5738   27.7142  -76.1352 C.3       8 UNK         0.0270 
     31 CB        -67.4821   27.9049  -75.0686 C.3       8 UNK        -0.1976 
     32 N         -68.7295   26.2842  -76.4047 N.am      8 UNK        -0.4313 
     33 C         -69.2670   25.7785  -77.5209 C.2       8 UNK         0.5041 
     34 O         -69.6247   26.4630  -78.4808 O.2       8 UNK        -0.5577 
     35 CA        -69.4678   24.2531  -77.5799 C.3       7 UNK         0.0284 
     36 CB        -68.6297   23.4543  -76.5539 C.3       7 UNK        -0.1958 
     37 N         -70.8925   23.9206  -77.4743 N.am      7 UNK        -0.4454 
     38 C         -71.7157   24.2053  -76.4536 C.2       7 UNK         0.5089 
     39 O         -71.3421   24.7438  -75.4080 O.2       7 UNK        -0.5125 
     40 CA        -73.2088   23.8790  -76.6713 C.3       6 UNK         0.0408 
     41 CB        -73.4377   22.5914  -77.4956 C.3       6 UNK        -0.1791 
     42 N         -73.9944   23.8307  -75.4333 N.am      6 UNK        -0.4762 
     43 C         -73.8648   22.9912  -74.3968 C.2       6 UNK         0.5007 
     44 O         -72.9851   22.1319  -74.3192 O.2       6 UNK        -0.5032 
     45 CA        -74.9355   23.0603  -73.2814 C.3       5 UNK         0.0783 
     46 C46       -74.5292   24.0091  -72.1221 C.3       11 UNK        -0.0857 
     47 S47       -75.6321   23.7950  -70.6785 S.3       11 UNK        -0.2512 
     48 C48       -75.5920   25.4360  -69.8922 C.3       11 UNK         0.0225 
     49 N         -76.3072   23.2946  -73.7635 N.am      5 UNK        -0.4615 
     50 C         -76.8145   24.4146  -74.2910 C.2       4 UNK         0.5053 
     51 O         -76.1423   25.4002  -74.6034 O.2       4 UNK        -0.5105 
     52 CA        -78.3314   24.4286  -74.4957 C.3       4 UNK         0.0263 
     53 CB        -79.0508   24.5492  -73.1381 C.3       4 UNK        -0.1981 
     54 N         -78.6773   25.5494  -75.3657 N.am      4 UNK        -0.4224 
     55 C         -79.8626   25.7492  -75.9464 C.2       3 UNK         0.4895 
     56 O         -80.8361   25.0044  -75.8038 O.2       3 UNK        -0.5091 
     57 CA        -80.0010   26.9838  -76.8422 C.3       3 UNK         0.0250 
     58 CB        -79.9133   26.6082  -78.3326 C.3       3 UNK        -0.1996 
     59 N         -81.2921   27.5832  -76.5336 N.am      3 UNK        -0.4254 
     60 C         -81.6612   28.8479  -76.7624 C.2       2 UNK         0.5004 
     61 O         -80.9954   29.6596  -77.4056 O.2       2 UNK        -0.5226 
     62 CA        -82.9892   29.2877  -76.1174 C.3       2 UNK         0.0269 
     63 CB        -84.1811   28.9347  -77.0217 C.3       2 UNK        -0.1926 
     64 N         -83.1841   28.6906  -74.7897 N.am      2 UNK        -0.4687 
     65 C         -82.4237   28.9752  -73.7201 C.2       1 UNK         0.5165 
     66 O         -81.5612   29.8544  -73.7146 O.2       1 UNK        -0.5079 
     67 H67       -86.2976   26.5173  -72.1352 H         1 UNK         0.0900 
     68 H68       -86.8564   27.7428  -70.9955 H         1 UNK         0.0900 
     69 H69       -87.1021   27.9715  -72.7290 H         1 UNK         0.0900 
     70 H70       -84.0777   26.5856  -72.4213 H         1 UNK         0.2959 
     71 H71       -82.4604   28.7982  -71.6072 H         1 UNK         0.1079 
     72 H72       -80.5859   27.3553  -72.7214 H         1 UNK         0.0837 
     73 H73       -81.8221   26.2109  -73.1096 H         1 UNK         0.0837 
     74 H74       -80.2498   27.1504  -68.8415 H         1 UNK         0.0685 
     75 H75       -80.6710   28.4146  -69.9616 H         1 UNK         0.0685 
     76 H76       -78.2276   25.7206  -69.2134 H         1 UNK         0.1434 
     77 H77       -75.2421   27.2853  -71.8545 H         1 UNK         0.1329 
     78 H78       -79.1600   29.0086  -71.8103 H         1 UNK         0.1335 
     79 H79       -77.2102   30.2018  -72.8562 H         1 UNK         0.0680 
     80 H80       -75.6668   29.3911  -73.0092 H         1 UNK         0.0680 
     81 H81       -77.3304   30.1753  -76.4893 H         1 UNK         0.1032 
     82 H82       -76.3378   30.8251  -75.2145 H         1 UNK         0.1032 
     83 H83       -75.5326   28.5040  -77.0404 H         1 UNK         0.0461 
     84 H84       -73.4656   31.6506  -78.4277 H         1 UNK         0.3453 
     85 H85       -73.0327   30.8275  -76.9495 H         1 UNK         0.3453 
     86 H86       -74.1942   29.6232  -74.7214 H         1 UNK         0.2984 
     87 H87       -71.9814   29.1205  -74.2540 H         1 UNK         0.0554 
     88 H88       -71.9444   27.0036  -72.8526 H         1 UNK         0.0847 
     89 H89       -72.9976   26.2385  -74.0449 H         1 UNK         0.0847 
     90 H90       -73.5527   27.6388  -73.1481 H         1 UNK         0.0847 
     91 H91       -70.7745   26.6187  -75.2397 H         1 UNK         0.3141 
     92 H92       -68.2408   28.2071  -77.0514 H         1 UNK         0.0743 
     93 H93       -66.5302   27.4850  -75.3948 H         1 UNK         0.0784 
     94 H94       -67.3144   28.9639  -74.8670 H         1 UNK         0.0784 
     95 H95       -67.7530   27.4327  -74.1234 H         1 UNK         0.0784 
     96 H96       -68.4888   25.6468  -75.6589 H         1 UNK         0.3213 
     97 H97       -69.1463   23.9426  -78.5754 H         1 UNK         0.0855 
     98 H98       -68.9202   23.6542  -75.5223 H         1 UNK         0.0814 
     99 H99       -67.5676   23.6836  -76.6510 H         1 UNK         0.0814 
    100 H100      -68.7383   22.3821  -76.7180 H         1 UNK         0.0814 
    101 H101      -71.3016   23.5184  -78.3057 H         1 UNK         0.3105 
    102 H102      -73.6173   24.7150  -77.2410 H         1 UNK         0.0547 
    103 H103      -72.9327   21.7321  -77.0524 H         1 UNK         0.0837 
    104 H104      -74.4988   22.3514  -77.5652 H         1 UNK         0.0837 
    105 H105      -73.0750   22.6964  -78.5182 H         1 UNK         0.0837 
    106 H106      -74.7284   24.5315  -75.3462 H         1 UNK         0.3020 
    107 H107      -74.9594   22.0515  -72.8647 H         1 UNK         0.1245 
    108 H108      -74.5468   25.0485  -72.4503 H         1 UNK         0.0781 
    109 H109      -73.5073   23.8066  -71.7958 H         1 UNK         0.0781 
    110 H110      -75.7824   25.3108  -68.8252 H         1 UNK         0.0836 
    111 H111      -74.5870   25.8546  -69.9665 H         1 UNK         0.0836 
    112 H112      -76.9458   22.5330  -73.5838 H         1 UNK         0.3022 
    113 H113      -78.6216   23.4980  -74.9875 H         1 UNK         0.0747 
    114 H114      -78.7348   23.7706  -72.4429 H         1 UNK         0.0793 
    115 H115      -80.1308   24.4574  -73.2443 H         1 UNK         0.0793 
    116 H116      -78.8378   25.5077  -72.6654 H         1 UNK         0.0793 
    117 H117      -77.9132   26.2031  -75.5049 H         1 UNK         0.3047 
    118 H118      -79.2131   27.6994  -76.6022 H         1 UNK         0.0822 
    119 H119      -80.6995   25.9078  -78.6174 H         1 UNK         0.0807 
    120 H120      -78.9560   26.1372  -78.5593 H         1 UNK         0.0807 
    121 H121      -80.0004   27.4873  -78.9712 H         1 UNK         0.0807 
    122 H122      -81.9063   26.9816  -75.9999 H         1 UNK         0.2946 
    123 H123      -82.9541   30.3736  -76.0013 H         1 UNK         0.1144 
    124 H124      -84.0659   29.3836  -78.0094 H         1 UNK         0.0793 
    125 H125      -85.1179   29.3064  -76.6060 H         1 UNK         0.0793 
    126 H126      -84.2793   27.8576  -77.1630 H         1 UNK         0.0793 
    127 H127      -83.8890   27.9729  -74.7014 H         1 UNK         0.2896 
@<TRIPOS>BOND
     1    1    2 1    
     2    1   67 1    
     3    1   68 1    
     4    1   69 1    
     5    2    3 2    
     6    2    4 am   BACKBONE|DICT|INTERRES
     7    4    5 1    
     8    4   70 1    
     9    5    6 1    
    10    5   65 1    
    11    5   71 1    
    12    6    7 1    
    13    6   72 1    
    14    6   73 1    
    15    7    8 1    
    16    8    9 1    
    17    8   74 1    
    18    8   75 1    
    19    9   10 ar   
    20    9   14 ar   
    21   10   11 ar   
    22   10   76 1    
    23   11   12 ar   
    24   11   48 1    
    25   12   13 ar   
    26   12   77 1    
    27   13   14 ar   
    28   13   15 1    
    29   14   78 1    
    30   15   16 1    
    31   15   79 1    
    32   15   80 1    
    33   16   17 1    
    34   17   18 1    
    35   17   81 1    
    36   17   82 1    
    37   18   19 1    
    38   18   22 1    
    39   18   83 1    
    40   19   20 am   BACKBONE|DICT|INTERRES
    41   19   21 2    
    42   20   84 1    
    43   20   85 1    
    44   22   23 am   BACKBONE|DICT|INTERRES
    45   22   86 1    
    46   23   24 2    
    47   23   25 1    
    48   25   26 1    
    49   25   27 1    
    50   25   87 1    
    51   26   88 1    
    52   26   89 1    
    53   26   90 1    
    54   27   28 am   BACKBONE|DICT|INTERRES
    55   27   91 1    
    56   28   29 2    
    57   28   30 1    
    58   30   31 1    
    59   30   32 1    
    60   30   92 1    
    61   31   93 1    
    62   31   94 1    
    63   31   95 1    
    64   32   33 am   BACKBONE|DICT|INTERRES
    65   32   96 1    
    66   33   34 2    
    67   33   35 1    
    68   35   36 1    
    69   35   37 1    
    70   35   97 1    
    71   36   98 1    
    72   36   99 1    
    73   36  100 1    
    74   37   38 am   BACKBONE|DICT|INTERRES
    75   37  101 1    
    76   38   39 2    
    77   38   40 1    
    78   40   41 1    
    79   40   42 1    
    80   40  102 1    
    81   41  103 1    
    82   41  104 1    
    83   41  105 1    
    84   42   43 am   BACKBONE|DICT|INTERRES
    85   42  106 1    
    86   43   44 2    
    87   43   45 1    
    88   45   46 1    
    89   45   49 1    
    90   45  107 1    
    91   46   47 1    
    92   46  108 1    
    93   46  109 1    
    94   47   48 1    
    95   48  110 1    
    96   48  111 1    
    97   49   50 am   BACKBONE|DICT|INTERRES
    98   49  112 1    
    99   50   51 2    
   100   50   52 1    
   101   52   53 1    
   102   52   54 1    
   103   52  113 1    
   104   53  114 1    
   105   53  115 1    
   106   53  116 1    
   107   54   55 am   BACKBONE|DICT|INTERRES
   108   54  117 1    
   109   55   56 2    
   110   55   57 1    
   111   57   58 1    
   112   57   59 1    
   113   57  118 1    
   114   58  119 1    
   115   58  120 1    
   116   58  121 1    
   117   59   60 am   BACKBONE|DICT|INTERRES
   118   59  122 1    
   119   60   61 2    
   120   60   62 1    
   121   62   63 1    
   122   62   64 1    
   123   62  123 1    
   124   63  124 1    
   125   63  125 1    
   126   63  126 1    
   127   64   65 am   BACKBONE|DICT|INTERRES
   128   64  127 1    
   129   65   66 2    
@<TRIPOS>SUBSTRUCTURE
     1 UNK         1 GROUP             0       ****    0 ROOT    
