@<TRIPOS>MOLECULE
3R135
127   129    1
SMALL
USER_CHARGES


@<TRIPOS>ATOM
      1 CA        -79.4715   21.5121  -74.3540 C.3       0 UNK        -0.1998 
      2 C         -80.1013   22.4766  -73.3597 C.2       0 UNK         0.4909 
      3 O         -80.7446   22.0428  -72.4038 O.2       0 UNK        -0.5240 
      4 N         -79.9216   23.7821  -73.5875 N.am      1 UNK        -0.4739 
      5 CA        -80.5745   24.8599  -72.8341 C.3       1 UNK         0.0864 
      6 C6        -79.7493   26.1698  -72.8526 C.3       11 UNK        -0.0881 
      7 S7        -78.1367   25.9705  -72.0153 S.3       11 UNK        -0.2682 
      8 C8        -77.9421   27.5718  -71.1540 C.3       11 UNK         0.0289 
      9 C9        -77.0665   28.5706  -71.9088 C.ar      11 UNK        -0.0687 
     10 C10       -77.1676   28.7283  -73.2963 C.ar      11 UNK        -0.0823 
     11 C11       -76.3263   29.6118  -73.9847 C.ar      11 UNK        -0.0830 
     12 C12       -75.4218   30.3866  -73.2550 C.ar      11 UNK        -0.1021 
     13 C13       -75.3250   30.2658  -71.8671 C.ar      11 UNK        -0.0753 
     14 C14       -76.1476   29.3530  -71.2005 C.ar      11 UNK        -0.0933 
     15 C15       -74.3250   31.1166  -71.0971 C.3       11 UNK         0.0166 
     16 S16       -72.6321   30.4746  -71.2938 S.3       11 UNK        -0.2615 
     17 C17       -71.7299   31.9523  -71.8738 C.3       11 UNK        -0.0865 
     18 CA        -71.9737   32.2870  -73.3701 C.3       10 UNK         0.0862 
     19 C         -71.1977   33.5693  -73.7887 C.2       10 UNK         0.5551 
     20 N         -70.2778   33.5094  -74.7442 N.am      10 UNK        -0.7319 
     21 O         -71.4422   34.6404  -73.2391 O.2       10 UNK        -0.5018 
     22 N         -71.7399   31.1255  -74.2440 N.am      10 UNK        -0.4509 
     23 C         -72.3228   30.9248  -75.4299 C.2       10 UNK         0.4899 
     24 O         -73.1551   31.6931  -75.9124 O.2       10 UNK        -0.4839 
     25 CA        -71.9468   29.6584  -76.2249 C.3       9 UNK         0.0222 
     26 CB        -70.9987   30.0112  -77.3877 C.3       9 UNK        -0.1966 
     27 N         -71.4194   28.5265  -75.4454 N.am      9 UNK        -0.4218 
     28 C         -70.2796   28.4233  -74.7497 C.2       9 UNK         0.5020 
     29 O         -69.5064   29.3641  -74.5604 O.2       9 UNK        -0.5274 
     30 CA        -69.9672   27.0341  -74.1550 C.3       8 UNK         0.0270 
     31 CB        -68.5618   26.9655  -73.5274 C.3       8 UNK        -0.1976 
     32 N         -70.9498   26.5999  -73.1572 N.am      8 UNK        -0.4313 
     33 C         -72.2026   26.2029  -73.4110 C.2       8 UNK         0.5041 
     34 O         -72.7053   26.2068  -74.5391 O.2       8 UNK        -0.5577 
     35 CA        -73.0312   25.7641  -72.1925 C.3       7 UNK         0.0284 
     36 CB        -73.5069   26.9868  -71.3974 C.3       7 UNK        -0.1958 
     37 N         -74.2048   24.9974  -72.6007 N.am      7 UNK        -0.4454 
     38 C         -74.2004   23.7009  -72.9344 C.2       7 UNK         0.5089 
     39 O         -73.2114   22.9709  -72.8553 O.2       7 UNK        -0.5125 
     40 CA        -75.5353   23.1203  -73.4316 C.3       6 UNK         0.0408 
     41 CB        -76.3265   22.5339  -72.2514 C.3       6 UNK        -0.1791 
     42 N         -76.3491   24.1289  -74.1187 N.am      6 UNK        -0.4762 
     43 C         -76.1373   24.5246  -75.3822 C.2       6 UNK         0.5007 
     44 O         -75.3172   23.9989  -76.1380 O.2       6 UNK        -0.5032 
     45 CA        -76.9748   25.7095  -75.8909 C.3       5 UNK         0.0783 
     46 C46       -76.1088   26.9830  -76.0557 C.3       11 UNK        -0.0857 
     47 S47       -77.1535   28.4289  -76.4501 S.3       11 UNK        -0.2512 
     48 C48       -76.3536   29.7745  -75.5064 C.3       11 UNK         0.0225 
     49 N         -77.6158   25.3228  -77.1479 N.am      5 UNK        -0.4615 
     50 C         -78.8102   24.7343  -77.2375 C.2       4 UNK         0.5053 
     51 O         -79.5313   24.4854  -76.2661 O.2       4 UNK        -0.5105 
     52 CA        -79.2647   24.3340  -78.6451 C.3       4 UNK         0.0263 
     53 CB        -78.7149   22.9465  -79.0147 C.3       4 UNK        -0.1981 
     54 N         -80.7223   24.2916  -78.6576 N.am      4 UNK        -0.4224 
     55 C         -81.5211   24.9025  -79.5399 C.2       3 UNK         0.4895 
     56 O         -81.1166   25.4793  -80.5503 O.2       3 UNK        -0.5091 
     57 CA        -83.0343   24.8751  -79.2454 C.3       3 UNK         0.0250 
     58 CB        -83.7283   23.8031  -80.1018 C.3       3 UNK        -0.1996 
     59 N         -83.3581   24.6444  -77.8317 N.am      3 UNK        -0.4254 
     60 C         -83.1166   25.5104  -76.8365 C.2       2 UNK         0.5004 
     61 O         -82.6248   26.6265  -77.0075 O.2       2 UNK        -0.5226 
     62 CA        -83.4407   25.0540  -75.4080 C.3       2 UNK         0.0269 
     63 CB        -84.2579   23.7464  -75.3146 C.3       2 UNK        -0.1926 
     64 N         -82.1777   24.9001  -74.6930 N.am      2 UNK        -0.4687 
     65 C         -81.9940   25.1097  -73.3831 C.2       1 UNK         0.5165 
     66 O         -82.8878   25.4706  -72.6161 O.2       1 UNK        -0.5079 
     67 H67       -78.9686   20.7005  -73.8291 H         1 UNK         0.0900 
     68 H68       -78.7379   22.0083  -74.9898 H         1 UNK         0.0900 
     69 H69       -80.2403   21.0797  -74.9935 H         1 UNK         0.0900 
     70 H70       -79.4803   24.0617  -74.4591 H         1 UNK         0.2959 
     71 H71       -80.6865   24.5466  -71.7933 H         1 UNK         0.1079 
     72 H72       -79.5895   26.5101  -73.8764 H         1 UNK         0.0837 
     73 H73       -80.3095   26.9652  -72.3578 H         1 UNK         0.0837 
     74 H74       -78.9116   28.0254  -70.9478 H         1 UNK         0.0685 
     75 H75       -77.4981   27.3591  -70.1803 H         1 UNK         0.0685 
     76 H76       -77.8938   28.1458  -73.8404 H         1 UNK         0.1434 
     77 H77       -74.7804   31.0847  -73.7724 H         1 UNK         0.1329 
     78 H78       -76.0656   29.2473  -70.1273 H         1 UNK         0.1335 
     79 H79       -74.5730   31.1366  -70.0349 H         1 UNK         0.0680 
     80 H80       -74.3887   32.1490  -71.4432 H         1 UNK         0.0680 
     81 H81       -70.6663   31.7795  -71.6993 H         1 UNK         0.1032 
     82 H82       -72.0025   32.7976  -71.2387 H         1 UNK         0.1032 
     83 H83       -73.0265   32.5563  -73.4630 H         1 UNK         0.0461 
     84 H84       -69.7836   34.3463  -75.0110 H         1 UNK         0.3453 
     85 H85       -70.0684   32.6314  -75.1918 H         1 UNK         0.3453 
     86 H86       -71.0079   30.4823  -73.9634 H         1 UNK         0.2984 
     87 H87       -72.8772   29.2925  -76.6621 H         1 UNK         0.0554 
     88 H88       -70.8062   29.1442  -78.0196 H         1 UNK         0.0847 
     89 H89       -70.0388   30.3865  -77.0316 H         1 UNK         0.0847 
     90 H90       -71.4318   30.7841  -78.0242 H         1 UNK         0.0847 
     91 H91       -72.0173   27.7006  -75.4161 H         1 UNK         0.3141 
     92 H92       -69.9901   26.3235  -74.9842 H         1 UNK         0.0743 
     93 H93       -68.4666   27.6373  -72.6733 H         1 UNK         0.0784 
     94 H94       -68.3256   25.9561  -73.1899 H         1 UNK         0.0784 
     95 H95       -67.7964   27.2488  -74.2514 H         1 UNK         0.0784 
     96 H96       -70.6369   26.6103  -72.1968 H         1 UNK         0.3213 
     97 H97       -72.4088   25.1402  -71.5470 H         1 UNK         0.0855 
     98 H98       -74.0321   27.6946  -72.0392 H         1 UNK         0.0814 
     99 H99       -72.6645   27.5143  -70.9498 H         1 UNK         0.0814 
    100 H100      -74.1779   26.7060  -70.5854 H         1 UNK         0.0814 
    101 H101      -75.0561   25.5201  -72.7379 H         1 UNK         0.3105 
    102 H102      -75.3116   22.3079  -74.1264 H         1 UNK         0.0547 
    103 H103      -75.7367   21.7842  -71.7222 H         1 UNK         0.0837 
    104 H104      -76.6042   23.2991  -71.5257 H         1 UNK         0.0837 
    105 H105      -77.2377   22.0433  -72.5868 H         1 UNK         0.0837 
    106 H106      -77.0448   24.6013  -73.5538 H         1 UNK         0.3020 
    107 H107      -77.7455   25.9271  -75.1511 H         1 UNK         0.1245 
    108 H108      -75.5424   27.1822  -75.1437 H         1 UNK         0.0781 
    109 H109      -75.3684   26.8558  -76.8478 H         1 UNK         0.0781 
    110 H110      -75.3339   29.8825  -75.8784 H         1 UNK         0.0836 
    111 H111      -76.8654   30.7084  -75.7419 H         1 UNK         0.0836 
    112 H112      -77.0635   25.4530  -77.9828 H         1 UNK         0.3022 
    113 H113      -78.8955   25.0766  -79.3558 H         1 UNK         0.0747 
    114 H114      -79.0414   22.6456  -80.0104 H         1 UNK         0.0793 
    115 H115      -77.6241   22.9436  -79.0164 H         1 UNK         0.0793 
    116 H116      -79.0428   22.1812  -78.3097 H         1 UNK         0.0793 
    117 H117      -81.1384   23.8983  -77.8253 H         1 UNK         0.3047 
    118 H118      -83.4358   25.8511  -79.5270 H         1 UNK         0.0822 
    119 H119      -84.8100   23.8251  -79.9670 H         1 UNK         0.0807 
    120 H120      -83.3780   22.7997  -79.8561 H         1 UNK         0.0807 
    121 H121      -83.5334   23.9649  -81.1630 H         1 UNK         0.0807 
    122 H122      -83.7700   23.7514  -77.6012 H         1 UNK         0.2946 
    123 H123      -84.0223   25.8594  -74.9530 H         1 UNK         0.1144 
    124 H124      -85.1930   23.8215  -75.8716 H         1 UNK         0.0793 
    125 H125      -84.5250   23.5293  -74.2801 H         1 UNK         0.0793 
    126 H126      -83.7043   22.8864  -75.6936 H         1 UNK         0.0793 
    127 H127      -81.3679   24.6723  -75.2603 H         1 UNK         0.2896 
@<TRIPOS>BOND
     1    1    2 1    
     2    1   67 1    
     3    1   68 1    
     4    1   69 1    
     5    2    3 2    
     6    2    4 am   BACKBONE|DICT|INTERRES
     7    4    5 1    
     8    4   70 1    
     9    5    6 1    
    10    5   65 1    
    11    5   71 1    
    12    6    7 1    
    13    6   72 1    
    14    6   73 1    
    15    7    8 1    
    16    8    9 1    
    17    8   74 1    
    18    8   75 1    
    19    9   10 ar   
    20    9   14 ar   
    21   10   11 ar   
    22   10   76 1    
    23   11   12 ar   
    24   11   48 1    
    25   12   13 ar   
    26   12   77 1    
    27   13   14 ar   
    28   13   15 1    
    29   14   78 1    
    30   15   16 1    
    31   15   79 1    
    32   15   80 1    
    33   16   17 1    
    34   17   18 1    
    35   17   81 1    
    36   17   82 1    
    37   18   19 1    
    38   18   22 1    
    39   18   83 1    
    40   19   20 am   BACKBONE|DICT|INTERRES
    41   19   21 2    
    42   20   84 1    
    43   20   85 1    
    44   22   23 am   BACKBONE|DICT|INTERRES
    45   22   86 1    
    46   23   24 2    
    47   23   25 1    
    48   25   26 1    
    49   25   27 1    
    50   25   87 1    
    51   26   88 1    
    52   26   89 1    
    53   26   90 1    
    54   27   28 am   BACKBONE|DICT|INTERRES
    55   27   91 1    
    56   28   29 2    
    57   28   30 1    
    58   30   31 1    
    59   30   32 1    
    60   30   92 1    
    61   31   93 1    
    62   31   94 1    
    63   31   95 1    
    64   32   33 am   BACKBONE|DICT|INTERRES
    65   32   96 1    
    66   33   34 2    
    67   33   35 1    
    68   35   36 1    
    69   35   37 1    
    70   35   97 1    
    71   36   98 1    
    72   36   99 1    
    73   36  100 1    
    74   37   38 am   BACKBONE|DICT|INTERRES
    75   37  101 1    
    76   38   39 2    
    77   38   40 1    
    78   40   41 1    
    79   40   42 1    
    80   40  102 1    
    81   41  103 1    
    82   41  104 1    
    83   41  105 1    
    84   42   43 am   BACKBONE|DICT|INTERRES
    85   42  106 1    
    86   43   44 2    
    87   43   45 1    
    88   45   46 1    
    89   45   49 1    
    90   45  107 1    
    91   46   47 1    
    92   46  108 1    
    93   46  109 1    
    94   47   48 1    
    95   48  110 1    
    96   48  111 1    
    97   49   50 am   BACKBONE|DICT|INTERRES
    98   49  112 1    
    99   50   51 2    
   100   50   52 1    
   101   52   53 1    
   102   52   54 1    
   103   52  113 1    
   104   53  114 1    
   105   53  115 1    
   106   53  116 1    
   107   54   55 am   BACKBONE|DICT|INTERRES
   108   54  117 1    
   109   55   56 2    
   110   55   57 1    
   111   57   58 1    
   112   57   59 1    
   113   57  118 1    
   114   58  119 1    
   115   58  120 1    
   116   58  121 1    
   117   59   60 am   BACKBONE|DICT|INTERRES
   118   59  122 1    
   119   60   61 2    
   120   60   62 1    
   121   62   63 1    
   122   62   64 1    
   123   62  123 1    
   124   63  124 1    
   125   63  125 1    
   126   63  126 1    
   127   64   65 am   BACKBONE|DICT|INTERRES
   128   64  127 1    
   129   65   66 2    
@<TRIPOS>SUBSTRUCTURE
     1 UNK         1 GROUP             0       ****    0 ROOT    
