@<TRIPOS>MOLECULE
3R135
127   129    1
SMALL
USER_CHARGES


@<TRIPOS>ATOM
      1 CA        -78.6515   22.8263  -70.6038 C.3       0 UNK        -0.1998 
      2 C         -79.7190   23.7861  -71.1079 C.2       0 UNK         0.4909 
      3 O         -80.6015   23.3785  -71.8647 O.2       0 UNK        -0.5240 
      4 N         -79.6462   25.0612  -70.7004 N.am      1 UNK        -0.4739 
      5 CA        -80.5225   26.1374  -71.1767 C.3       1 UNK         0.0864 
      6 C6        -80.3355   27.4254  -70.3352 C.3       11 UNK        -0.0881 
      7 S7        -81.6108   28.6878  -70.6891 S.3       11 UNK        -0.2682 
      8 C8        -80.6788   30.2546  -70.5464 C.3       11 UNK         0.0289 
      9 C9        -79.4510   30.3624  -71.4509 C.ar      11 UNK        -0.0687 
     10 C10       -79.4495   29.8567  -72.7566 C.ar      11 UNK        -0.0823 
     11 C11       -78.3078   29.9360  -73.5617 C.ar      11 UNK        -0.0830 
     12 C12       -77.1635   30.5613  -73.0476 C.ar      11 UNK        -0.1021 
     13 C13       -77.1558   31.0976  -71.7575 C.ar      11 UNK        -0.0753 
     14 C14       -78.3026   30.9950  -70.9662 C.ar      11 UNK        -0.0933 
     15 C15       -75.9161   31.8169  -71.2391 C.3       11 UNK         0.0166 
     16 S16       -75.2720   31.1426  -69.6712 S.3       11 UNK        -0.2615 
     17 C17       -74.9851   29.3754  -70.0317 C.3       11 UNK        -0.0865 
     18 CA        -73.6804   29.1179  -70.8332 C.3       10 UNK         0.0862 
     19 C         -73.1472   27.6818  -70.5816 C.2       10 UNK         0.5551 
     20 N         -72.0181   27.5442  -69.8999 N.am      10 UNK        -0.7319 
     21 O         -73.7779   26.6960  -70.9559 O.2       10 UNK        -0.5018 
     22 N         -73.9003   29.3507  -72.2648 N.am      10 UNK        -0.4509 
     23 C         -72.9392   29.4789  -73.1852 C.2       10 UNK         0.4899 
     24 O         -71.7336   29.5330  -72.9323 O.2       10 UNK        -0.4839 
     25 CA        -73.4267   29.6179  -74.6383 C.3       9 UNK         0.0222 
     26 CB        -73.5375   31.1004  -75.0314 C.3       9 UNK        -0.1966 
     27 N         -72.5699   28.9275  -75.6059 N.am      9 UNK        -0.4218 
     28 C         -72.3516   27.6068  -75.6260 C.2       9 UNK         0.5020 
     29 O         -72.8120   26.8181  -74.7993 O.2       9 UNK        -0.5274 
     30 CA        -71.4695   27.0716  -76.7582 C.3       8 UNK         0.0270 
     31 CB        -70.0334   26.8293  -76.2520 C.3       8 UNK        -0.1976 
     32 N         -72.0677   25.8340  -77.2571 N.am      8 UNK        -0.4313 
     33 C         -71.7236   25.1893  -78.3792 C.2       8 UNK         0.5041 
     34 O         -70.8486   25.5792  -79.1539 O.2       8 UNK        -0.5577 
     35 CA        -72.4917   23.9007  -78.7058 C.3       7 UNK         0.0284 
     36 CB        -72.3132   22.8430  -77.6017 C.3       7 UNK        -0.1958 
     37 N         -73.9126   24.1948  -78.8795 N.am      7 UNK        -0.4454 
     38 C         -74.5621   24.2200  -80.0522 C.2       7 UNK         0.5089 
     39 O         -74.0435   23.9264  -81.1301 O.2       7 UNK        -0.5125 
     40 CA        -76.0455   24.6462  -80.0326 C.3       6 UNK         0.0408 
     41 CB        -76.9587   23.4105  -80.0441 C.3       6 UNK        -0.1791 
     42 N         -76.3876   25.4894  -78.8842 N.am      6 UNK        -0.4762 
     43 C         -75.9403   26.7418  -78.7052 C.2       6 UNK         0.5007 
     44 O         -75.3168   27.3632  -79.5664 O.2       6 UNK        -0.5032 
     45 CA        -76.1739   27.4078  -77.3311 C.3       5 UNK         0.0783 
     46 C46       -77.1893   28.5739  -77.4381 C.3       11 UNK        -0.0857 
     47 S47       -76.9861   29.7639  -76.0733 S.3       11 UNK        -0.2512 
     48 C48       -78.3530   29.3034  -74.9563 C.3       11 UNK         0.0225 
     49 N         -76.5358   26.4675  -76.2602 N.am      5 UNK        -0.4615 
     50 C         -75.7741   25.4619  -75.8055 C.2       4 UNK         0.5053 
     51 O         -74.6970   25.1387  -76.3042 O.2       4 UNK        -0.5105 
     52 CA        -76.3457   24.6352  -74.6456 C.3       4 UNK         0.0263 
     53 CB        -76.0837   25.3396  -73.3051 C.3       4 UNK        -0.1981 
     54 N         -77.7781   24.3690  -74.8100 N.am      4 UNK        -0.4224 
     55 C         -78.2810   23.5740  -75.7699 C.2       3 UNK         0.4895 
     56 O         -77.5814   22.9716  -76.5842 O.2       3 UNK        -0.5091 
     57 CA        -79.8097   23.4172  -75.8628 C.3       3 UNK         0.0250 
     58 CB        -80.2516   22.0899  -75.2262 C.3       3 UNK        -0.1996 
     59 N         -80.5571   24.5184  -75.2548 N.am      3 UNK        -0.4254 
     60 C         -80.5949   25.7711  -75.7317 C.2       2 UNK         0.5004 
     61 O         -80.0243   26.1306  -76.7615 O.2       2 UNK        -0.5226 
     62 CA        -81.3617   26.8121  -74.8953 C.3       2 UNK         0.0269 
     63 CB        -82.8081   26.9437  -75.3972 C.3       2 UNK        -0.1926 
     64 N         -81.3733   26.5487  -73.4500 N.am      2 UNK        -0.4687 
     65 C         -80.2860   26.3855  -72.6815 C.2       1 UNK         0.5165 
     66 O         -79.1340   26.4094  -73.1192 O.2       1 UNK        -0.5079 
     67 H67       -79.1130   22.0076  -70.0515 H         1 UNK         0.0900 
     68 H68       -78.1020   22.4039  -71.4450 H         1 UNK         0.0900 
     69 H69       -77.9362   23.3203  -69.9461 H         1 UNK         0.0900 
     70 H70       -78.8854   25.3467  -70.1006 H         1 UNK         0.2959 
     71 H71       -81.5504   25.7909  -71.0436 H         1 UNK         0.1079 
     72 H72       -80.4035   27.1872  -69.2725 H         1 UNK         0.0837 
     73 H73       -79.3355   27.8366  -70.4856 H         1 UNK         0.0837 
     74 H74       -81.3519   31.0815  -70.7774 H         1 UNK         0.0685 
     75 H75       -80.3887   30.3767  -69.5012 H         1 UNK         0.0685 
     76 H76       -80.3392   29.3798  -73.1425 H         1 UNK         0.1434 
     77 H77       -76.2730   30.6473  -73.6502 H         1 UNK         0.1329 
     78 H78       -78.2958   31.4092  -69.9671 H         1 UNK         0.1335 
     79 H79       -76.1668   32.8670  -71.0835 H         1 UNK         0.0680 
     80 H80       -75.1165   31.8090  -71.9801 H         1 UNK         0.0680 
     81 H81       -74.9374   28.8816  -69.0587 H         1 UNK         0.1032 
     82 H82       -75.8540   28.9413  -70.5301 H         1 UNK         0.1032 
     83 H83       -72.9214   29.8257  -70.4924 H         1 UNK         0.0461 
     84 H84       -71.4985   28.3492  -69.5848 H         1 UNK         0.3453 
     85 H85       -71.6685   26.6174  -69.7133 H         1 UNK         0.3453 
     86 H86       -74.8589   29.2851  -72.5707 H         1 UNK         0.2984 
     87 H87       -74.4174   29.1651  -74.7097 H         1 UNK         0.0554 
     88 H88       -74.1727   31.6485  -74.3351 H         1 UNK         0.0847 
     89 H89       -73.9756   31.2168  -76.0230 H         1 UNK         0.0847 
     90 H90       -72.5629   31.5905  -75.0327 H         1 UNK         0.0847 
     91 H91       -72.1117   29.5068  -76.2949 H         1 UNK         0.3141 
     92 H92       -71.4509   27.7987  -77.5727 H         1 UNK         0.0743 
     93 H93       -70.0077   26.0656  -75.4735 H         1 UNK         0.0784 
     94 H94       -69.3701   26.5103  -77.0559 H         1 UNK         0.0784 
     95 H95       -69.6095   27.7410  -75.8290 H         1 UNK         0.0784 
     96 H96       -72.8448   25.4877  -76.6937 H         1 UNK         0.3213 
     97 H97       -72.0726   23.4908  -79.6274 H         1 UNK         0.0855 
     98 H98       -72.7456   23.1599  -76.6519 H         1 UNK         0.0814 
     99 H99       -71.2564   22.6359  -77.4274 H         1 UNK         0.0814 
    100 H100      -72.7854   21.9013  -77.8817 H         1 UNK         0.0814 
    101 H101      -74.4073   24.4915  -78.0416 H         1 UNK         0.3105 
    102 H102      -76.2377   25.2188  -80.9425 H         1 UNK         0.0547 
    103 H103      -76.7711   22.7967  -80.9261 H         1 UNK         0.0837 
    104 H104      -76.7950   22.7797  -79.1697 H         1 UNK         0.0837 
    105 H105      -78.0116   23.6920  -80.0638 H         1 UNK         0.0837 
    106 H106      -76.8863   25.0449  -78.1251 H         1 UNK         0.3020 
    107 H107      -75.2032   27.8287  -77.0589 H         1 UNK         0.1245 
    108 H108      -78.2155   28.2035  -77.4761 H         1 UNK         0.0781 
    109 H109      -77.0411   29.1403  -78.3600 H         1 UNK         0.0781 
    110 H110      -78.3547   28.2209  -74.8359 H         1 UNK         0.0836 
    111 H111      -79.2911   29.5702  -75.4449 H         1 UNK         0.0836 
    112 H112      -77.4347   26.6141  -75.8259 H         1 UNK         0.3022 
    113 H113      -75.8244   23.6755  -74.6303 H         1 UNK         0.0747 
    114 H114      -76.4839   24.7694  -72.4667 H         1 UNK         0.0793 
    115 H115      -75.0119   25.4582  -73.1369 H         1 UNK         0.0793 
    116 H116      -76.5228   26.3375  -73.2738 H         1 UNK         0.0793 
    117 H117      -78.4085   24.8744  -74.1948 H         1 UNK         0.3047 
    118 H118      -80.0663   23.3872  -76.9242 H         1 UNK         0.0822 
    119 H119      -81.3246   21.9323  -75.3371 H         1 UNK         0.0807 
    120 H120      -80.0140   22.0530  -74.1625 H         1 UNK         0.0807 
    121 H121      -79.7507   21.2444  -75.7002 H         1 UNK         0.0807 
    122 H122      -81.0302   24.3213  -74.3830 H         1 UNK         0.2946 
    123 H123      -80.8642   27.7700  -75.0480 H         1 UNK         0.1144 
    124 H124      -83.3323   27.7549  -74.8914 H         1 UNK         0.0793 
    125 H125      -83.3755   26.0256  -75.2395 H         1 UNK         0.0793 
    126 H126      -82.8326   27.1627  -76.4660 H         1 UNK         0.0793 
    127 H127      -82.2823   26.5182  -73.0099 H         1 UNK         0.2896 
@<TRIPOS>BOND
     1    1    2 1    
     2    1   67 1    
     3    1   68 1    
     4    1   69 1    
     5    2    3 2    
     6    2    4 am   BACKBONE|DICT|INTERRES
     7    4    5 1    
     8    4   70 1    
     9    5    6 1    
    10    5   65 1    
    11    5   71 1    
    12    6    7 1    
    13    6   72 1    
    14    6   73 1    
    15    7    8 1    
    16    8    9 1    
    17    8   74 1    
    18    8   75 1    
    19    9   10 ar   
    20    9   14 ar   
    21   10   11 ar   
    22   10   76 1    
    23   11   12 ar   
    24   11   48 1    
    25   12   13 ar   
    26   12   77 1    
    27   13   14 ar   
    28   13   15 1    
    29   14   78 1    
    30   15   16 1    
    31   15   79 1    
    32   15   80 1    
    33   16   17 1    
    34   17   18 1    
    35   17   81 1    
    36   17   82 1    
    37   18   19 1    
    38   18   22 1    
    39   18   83 1    
    40   19   20 am   BACKBONE|DICT|INTERRES
    41   19   21 2    
    42   20   84 1    
    43   20   85 1    
    44   22   23 am   BACKBONE|DICT|INTERRES
    45   22   86 1    
    46   23   24 2    
    47   23   25 1    
    48   25   26 1    
    49   25   27 1    
    50   25   87 1    
    51   26   88 1    
    52   26   89 1    
    53   26   90 1    
    54   27   28 am   BACKBONE|DICT|INTERRES
    55   27   91 1    
    56   28   29 2    
    57   28   30 1    
    58   30   31 1    
    59   30   32 1    
    60   30   92 1    
    61   31   93 1    
    62   31   94 1    
    63   31   95 1    
    64   32   33 am   BACKBONE|DICT|INTERRES
    65   32   96 1    
    66   33   34 2    
    67   33   35 1    
    68   35   36 1    
    69   35   37 1    
    70   35   97 1    
    71   36   98 1    
    72   36   99 1    
    73   36  100 1    
    74   37   38 am   BACKBONE|DICT|INTERRES
    75   37  101 1    
    76   38   39 2    
    77   38   40 1    
    78   40   41 1    
    79   40   42 1    
    80   40  102 1    
    81   41  103 1    
    82   41  104 1    
    83   41  105 1    
    84   42   43 am   BACKBONE|DICT|INTERRES
    85   42  106 1    
    86   43   44 2    
    87   43   45 1    
    88   45   46 1    
    89   45   49 1    
    90   45  107 1    
    91   46   47 1    
    92   46  108 1    
    93   46  109 1    
    94   47   48 1    
    95   48  110 1    
    96   48  111 1    
    97   49   50 am   BACKBONE|DICT|INTERRES
    98   49  112 1    
    99   50   51 2    
   100   50   52 1    
   101   52   53 1    
   102   52   54 1    
   103   52  113 1    
   104   53  114 1    
   105   53  115 1    
   106   53  116 1    
   107   54   55 am   BACKBONE|DICT|INTERRES
   108   54  117 1    
   109   55   56 2    
   110   55   57 1    
   111   57   58 1    
   112   57   59 1    
   113   57  118 1    
   114   58  119 1    
   115   58  120 1    
   116   58  121 1    
   117   59   60 am   BACKBONE|DICT|INTERRES
   118   59  122 1    
   119   60   61 2    
   120   60   62 1    
   121   62   63 1    
   122   62   64 1    
   123   62  123 1    
   124   63  124 1    
   125   63  125 1    
   126   63  126 1    
   127   64   65 am   BACKBONE|DICT|INTERRES
   128   64  127 1    
   129   65   66 2    
@<TRIPOS>SUBSTRUCTURE
     1 UNK         1 GROUP             0       ****    0 ROOT    
