@<TRIPOS>MOLECULE
3R135
127   129    1
SMALL
USER_CHARGES


@<TRIPOS>ATOM
      1 CA        -79.2509   24.8744  -71.0685 C.3       0 UNK        -0.1998 
      2 C         -79.8343   26.0413  -71.8513 C.2       0 UNK         0.4909 
      3 O         -80.4883   26.9047  -71.2669 O.2       0 UNK        -0.5240 
      4 N         -79.6186   26.0587  -73.1720 N.am      1 UNK        -0.4739 
      5 CA        -80.1244   27.0742  -74.1040 C.3       1 UNK         0.0864 
      6 C6        -79.0821   27.3833  -75.2169 C.3       11 UNK        -0.0881 
      7 S7        -78.9399   29.1751  -75.5382 S.3       11 UNK        -0.2682 
      8 C8        -77.1840   29.5162  -75.1975 C.3       11 UNK         0.0289 
      9 C9        -76.8438   29.4816  -73.7139 C.ar      11 UNK        -0.0687 
     10 C10       -76.3905   28.2992  -73.1243 C.ar      11 UNK        -0.0823 
     11 C11       -76.0195   28.2555  -71.7766 C.ar      11 UNK        -0.0830 
     12 C12       -76.0971   29.4307  -71.0221 C.ar      11 UNK        -0.1021 
     13 C13       -76.5275   30.6288  -71.6022 C.ar      11 UNK        -0.0753 
     14 C14       -76.9122   30.6455  -72.9457 C.ar      11 UNK        -0.0933 
     15 C15       -76.5772   31.9087  -70.7813 C.3       11 UNK         0.0166 
     16 S16       -75.1991   33.0317  -71.1844 S.3       11 UNK        -0.2615 
     17 C17       -73.7528   32.1097  -70.5525 C.3       11 UNK        -0.0865 
     18 CA        -72.7024   31.7817  -71.6487 C.3       10 UNK         0.0862 
     19 C         -71.4476   31.0994  -71.0233 C.2       10 UNK         0.5551 
     20 N         -71.0670   29.8884  -71.4139 N.am      10 UNK        -0.7319 
     21 O         -70.8003   31.6895  -70.1616 O.2       10 UNK        -0.5018 
     22 N         -73.2932   31.0594  -72.7870 N.am      10 UNK        -0.4509 
     23 C         -72.7375   30.9674  -74.0004 C.2       10 UNK         0.4899 
     24 O         -71.6989   31.5402  -74.3370 O.2       10 UNK        -0.4839 
     25 CA        -73.4705   30.0740  -75.0135 C.3       9 UNK         0.0222 
     26 CB        -74.0403   30.9097  -76.1711 C.3       9 UNK        -0.1966 
     27 N         -72.6294   29.0048  -75.5530 N.am      9 UNK        -0.4218 
     28 C         -71.9628   28.0917  -74.8312 C.2       9 UNK         0.5020 
     29 O         -71.9271   28.0777  -73.5986 O.2       9 UNK        -0.5274 
     30 CA        -71.2336   27.0031  -75.6342 C.3       8 UNK         0.0270 
     31 CB        -70.7667   25.8246  -74.7573 C.3       8 UNK        -0.1976 
     32 N         -72.1040   26.4948  -76.6969 N.am      8 UNK        -0.4313 
     33 C         -71.7321   26.2810  -77.9664 C.2       8 UNK         0.5041 
     34 O         -70.6092   26.5520  -78.3951 O.2       8 UNK        -0.5577 
     35 CA        -72.7504   25.6382  -78.9311 C.3       7 UNK         0.0284 
     36 CB        -72.2722   24.2402  -79.3610 C.3       7 UNK        -0.1958 
     37 N         -74.1005   25.5173  -78.3769 N.am      7 UNK        -0.4454 
     38 C         -75.0125   26.4974  -78.3516 C.2       7 UNK         0.5089 
     39 O         -74.8293   27.6173  -78.8285 O.2       7 UNK        -0.5125 
     40 CA        -76.3456   26.1817  -77.6437 C.3       6 UNK         0.0408 
     41 CB        -77.3859   25.6784  -78.6554 C.3       6 UNK        -0.1791 
     42 N         -76.2451   25.2221  -76.5334 N.am      6 UNK        -0.4762 
     43 C         -75.4546   25.3545  -75.4555 C.2       6 UNK         0.5007 
     44 O         -74.6547   26.2807  -75.3439 O.2       6 UNK        -0.5032 
     45 CA        -75.5073   24.2691  -74.3501 C.3       5 UNK         0.0783 
     46 C46       -75.8953   24.8314  -72.9495 C.3       11 UNK        -0.0857 
     47 S47       -74.5876   25.8213  -72.1441 S.3       11 UNK        -0.2512 
     48 C48       -75.5635   26.9609  -71.0973 C.3       11 UNK         0.0225 
     49 N         -76.3075   23.0910  -74.7257 N.am      5 UNK        -0.4615 
     50 C         -77.6435   23.0172  -74.7722 C.2       4 UNK         0.5053 
     51 O         -78.3935   23.9546  -74.4916 O.2       4 UNK        -0.5105 
     52 CA        -78.2438   21.6682  -75.1983 C.3       4 UNK         0.0263 
     53 CB        -78.3582   20.7310  -73.9855 C.3       4 UNK        -0.1981 
     54 N         -79.5720   21.8509  -75.7855 N.am      4 UNK        -0.4224 
     55 C         -79.8106   22.4389  -76.9672 C.2       3 UNK         0.4895 
     56 O         -78.9325   22.7703  -77.7637 O.2       3 UNK        -0.5091 
     57 CA        -81.2764   22.7620  -77.2695 C.3       3 UNK         0.0250 
     58 CB        -82.0907   21.4726  -77.5071 C.3       3 UNK        -0.1996 
     59 N         -81.8063   23.5517  -76.1574 N.am      3 UNK        -0.4254 
     60 C         -83.0008   24.1531  -76.0907 C.2       2 UNK         0.5004 
     61 O         -83.8533   24.1026  -76.9776 O.2       2 UNK        -0.5226 
     62 CA        -83.2880   24.9576  -74.8105 C.3       2 UNK         0.0269 
     63 CB        -83.9527   24.0635  -73.7510 C.3       2 UNK        -0.1926 
     64 N         -82.0721   25.5529  -74.2466 N.am      2 UNK        -0.4687 
     65 C         -81.4929   26.6730  -74.7054 C.2       1 UNK         0.5165 
     66 O         -81.9938   27.3669  -75.5916 O.2       1 UNK        -0.5079 
     67 H67       -78.5547   25.2379  -70.3139 H         1 UNK         0.0900 
     68 H68       -78.7205   24.1738  -71.7130 H         1 UNK         0.0900 
     69 H69       -80.0464   24.3291  -70.5614 H         1 UNK         0.0900 
     70 H70       -79.1105   25.2885  -73.6094 H         1 UNK         0.2959 
     71 H71       -80.3067   27.9886  -73.5347 H         1 UNK         0.1079 
     72 H72       -78.1021   26.9960  -74.9463 H         1 UNK         0.0837 
     73 H73       -79.3188   26.8779  -76.1555 H         1 UNK         0.0837 
     74 H74       -76.9485   30.5019  -75.6003 H         1 UNK         0.0685 
     75 H75       -76.5533   28.8142  -75.7428 H         1 UNK         0.0685 
     76 H76       -76.3098   27.4167  -73.7319 H         1 UNK         0.1434 
     77 H77       -75.8177   29.4145  -69.9773 H         1 UNK         0.1329 
     78 H78       -77.2435   31.5707  -73.3974 H         1 UNK         0.1335 
     79 H79       -77.5189   32.4244  -70.9750 H         1 UNK         0.0680 
     80 H80       -76.5656   31.6881  -69.7126 H         1 UNK         0.0680 
     81 H81       -74.0784   31.1960  -70.0542 H         1 UNK         0.1032 
     82 H82       -73.2996   32.7226  -69.7709 H         1 UNK         0.1032 
     83 H83       -72.3461   32.7376  -72.0378 H         1 UNK         0.0461 
     84 H84       -70.2520   29.4730  -70.9930 H         1 UNK         0.3453 
     85 H85       -71.5630   29.3856  -72.1438 H         1 UNK         0.3453 
     86 H86       -74.1503   30.5589  -72.5956 H         1 UNK         0.2984 
     87 H87       -74.2957   29.5802  -74.5049 H         1 UNK         0.0554 
     88 H88       -74.6223   30.2957  -76.8589 H         1 UNK         0.0847 
     89 H89       -73.2493   31.3964  -76.7433 H         1 UNK         0.0847 
     90 H90       -74.6995   31.6942  -75.7969 H         1 UNK         0.0847 
     91 H91       -72.5827   28.9332  -76.5587 H         1 UNK         0.3141 
     92 H92       -70.3504   27.4816  -76.0622 H         1 UNK         0.0743 
     93 H93       -71.6090   25.3363  -74.2649 H         1 UNK         0.0784 
     94 H94       -70.2403   25.0746  -75.3477 H         1 UNK         0.0784 
     95 H95       -70.0821   26.1622  -73.9781 H         1 UNK         0.0784 
     96 H96       -73.0659   26.3175  -76.4139 H         1 UNK         0.3213 
     97 H97       -72.7917   26.2700  -79.8212 H         1 UNK         0.0855 
     98 H98       -72.1968   23.5597  -78.5120 H         1 UNK         0.0814 
     99 H99       -71.2867   24.2892  -79.8266 H         1 UNK         0.0814 
    100 H100      -72.9491   23.7954  -80.0908 H         1 UNK         0.0814 
    101 H101      -74.3449   24.6330  -77.9554 H         1 UNK         0.3105 
    102 H102      -76.7166   27.1186  -77.2288 H         1 UNK         0.0547 
    103 H103      -77.4999   26.3805  -79.4826 H         1 UNK         0.0837 
    104 H104      -77.1029   24.7148  -79.0809 H         1 UNK         0.0837 
    105 H105      -78.3668   25.5637  -78.1938 H         1 UNK         0.0837 
    106 H106      -76.8753   24.4326  -76.5634 H         1 UNK         0.3020 
    107 H107      -74.4837   23.8979  -74.2731 H         1 UNK         0.1245 
    108 H108      -76.1092   24.0031  -72.2723 H         1 UNK         0.0781 
    109 H109      -76.8186   25.4064  -73.0018 H         1 UNK         0.0781 
    110 H110      -74.9444   27.2068  -70.2332 H         1 UNK         0.0836 
    111 H111      -76.4356   26.4389  -70.7034 H         1 UNK         0.0836 
    112 H112      -75.7732   22.2702  -74.9769 H         1 UNK         0.3022 
    113 H113      -77.5936   21.2095  -75.9463 H         1 UNK         0.0747 
    114 H114      -78.7728   19.7634  -74.2694 H         1 UNK         0.0793 
    115 H115      -77.3803   20.5432  -73.5399 H         1 UNK         0.0793 
    116 H116      -78.9945   21.1535  -73.2063 H         1 UNK         0.0793 
    117 H117      -80.3574   21.6088  -75.1997 H         1 UNK         0.3047 
    118 H118      -81.3083   23.3746  -78.1729 H         1 UNK         0.0822 
    119 H119      -81.6179   20.8476  -78.2660 H         1 UNK         0.0807 
    120 H120      -83.0972   21.6936  -77.8618 H         1 UNK         0.0807 
    121 H121      -82.1825   20.8740  -76.6004 H         1 UNK         0.0807 
    122 H122      -81.1571   23.7146  -75.3997 H         1 UNK         0.2946 
    123 H123      -83.9872   25.7559  -75.0719 H         1 UNK         0.1144 
    124 H124      -84.8726   23.6214  -74.1366 H         1 UNK         0.0793 
    125 H125      -84.2181   24.6344  -72.8610 H         1 UNK         0.0793 
    126 H126      -83.3017   23.2442  -73.4431 H         1 UNK         0.0793 
    127 H127      -81.6134   25.0562  -73.4967 H         1 UNK         0.2896 
@<TRIPOS>BOND
     1    1    2 1    
     2    1   67 1    
     3    1   68 1    
     4    1   69 1    
     5    2    3 2    
     6    2    4 am   BACKBONE|DICT|INTERRES
     7    4    5 1    
     8    4   70 1    
     9    5    6 1    
    10    5   65 1    
    11    5   71 1    
    12    6    7 1    
    13    6   72 1    
    14    6   73 1    
    15    7    8 1    
    16    8    9 1    
    17    8   74 1    
    18    8   75 1    
    19    9   10 ar   
    20    9   14 ar   
    21   10   11 ar   
    22   10   76 1    
    23   11   12 ar   
    24   11   48 1    
    25   12   13 ar   
    26   12   77 1    
    27   13   14 ar   
    28   13   15 1    
    29   14   78 1    
    30   15   16 1    
    31   15   79 1    
    32   15   80 1    
    33   16   17 1    
    34   17   18 1    
    35   17   81 1    
    36   17   82 1    
    37   18   19 1    
    38   18   22 1    
    39   18   83 1    
    40   19   20 am   BACKBONE|DICT|INTERRES
    41   19   21 2    
    42   20   84 1    
    43   20   85 1    
    44   22   23 am   BACKBONE|DICT|INTERRES
    45   22   86 1    
    46   23   24 2    
    47   23   25 1    
    48   25   26 1    
    49   25   27 1    
    50   25   87 1    
    51   26   88 1    
    52   26   89 1    
    53   26   90 1    
    54   27   28 am   BACKBONE|DICT|INTERRES
    55   27   91 1    
    56   28   29 2    
    57   28   30 1    
    58   30   31 1    
    59   30   32 1    
    60   30   92 1    
    61   31   93 1    
    62   31   94 1    
    63   31   95 1    
    64   32   33 am   BACKBONE|DICT|INTERRES
    65   32   96 1    
    66   33   34 2    
    67   33   35 1    
    68   35   36 1    
    69   35   37 1    
    70   35   97 1    
    71   36   98 1    
    72   36   99 1    
    73   36  100 1    
    74   37   38 am   BACKBONE|DICT|INTERRES
    75   37  101 1    
    76   38   39 2    
    77   38   40 1    
    78   40   41 1    
    79   40   42 1    
    80   40  102 1    
    81   41  103 1    
    82   41  104 1    
    83   41  105 1    
    84   42   43 am   BACKBONE|DICT|INTERRES
    85   42  106 1    
    86   43   44 2    
    87   43   45 1    
    88   45   46 1    
    89   45   49 1    
    90   45  107 1    
    91   46   47 1    
    92   46  108 1    
    93   46  109 1    
    94   47   48 1    
    95   48  110 1    
    96   48  111 1    
    97   49   50 am   BACKBONE|DICT|INTERRES
    98   49  112 1    
    99   50   51 2    
   100   50   52 1    
   101   52   53 1    
   102   52   54 1    
   103   52  113 1    
   104   53  114 1    
   105   53  115 1    
   106   53  116 1    
   107   54   55 am   BACKBONE|DICT|INTERRES
   108   54  117 1    
   109   55   56 2    
   110   55   57 1    
   111   57   58 1    
   112   57   59 1    
   113   57  118 1    
   114   58  119 1    
   115   58  120 1    
   116   58  121 1    
   117   59   60 am   BACKBONE|DICT|INTERRES
   118   59  122 1    
   119   60   61 2    
   120   60   62 1    
   121   62   63 1    
   122   62   64 1    
   123   62  123 1    
   124   63  124 1    
   125   63  125 1    
   126   63  126 1    
   127   64   65 am   BACKBONE|DICT|INTERRES
   128   64  127 1    
   129   65   66 2    
@<TRIPOS>SUBSTRUCTURE
     1 UNK         1 GROUP             0       ****    0 ROOT    
