@<TRIPOS>MOLECULE
3R135
127   129    1
SMALL
USER_CHARGES


@<TRIPOS>ATOM
      1 CA        -82.2242   24.7177  -71.1884 C.3       0 UNK        -0.1998 
      2 C         -82.2310   25.3174  -72.5856 C.2       0 UNK         0.4909 
      3 O         -82.8522   24.7574  -73.4899 O.2       0 UNK        -0.5240 
      4 N         -81.5458   26.4545  -72.7699 N.am      1 UNK        -0.4739 
      5 CA        -81.4236   27.1713  -74.0476 C.3       1 UNK         0.0864 
      6 C6        -80.6825   28.5324  -73.9230 C.3       11 UNK        -0.0881 
      7 S7        -81.1030   29.4770  -72.4148 S.3       11 UNK        -0.2682 
      8 C8        -79.6681   30.6017  -72.2650 C.3       11 UNK         0.0289 
      9 C9        -78.3309   29.9790  -71.8424 C.ar      11 UNK        -0.0687 
     10 C10       -78.1286   28.5980  -71.6932 C.ar      11 UNK        -0.0823 
     11 C11       -76.8684   28.0881  -71.3647 C.ar      11 UNK        -0.0830 
     12 C12       -75.8127   28.9712  -71.1271 C.ar      11 UNK        -0.1021 
     13 C13       -75.9957   30.3481  -71.2624 C.ar      11 UNK        -0.0753 
     14 C14       -77.2519   30.8437  -71.6226 C.ar      11 UNK        -0.0933 
     15 C15       -74.8211   31.2865  -71.0451 C.3       11 UNK         0.0166 
     16 S16       -73.7884   31.3641  -72.5404 S.3       11 UNK        -0.2615 
     17 C17       -72.1522   31.7726  -71.8325 C.3       11 UNK        -0.0865 
     18 CA        -71.2216   30.5395  -71.6548 C.3       10 UNK         0.0862 
     19 C         -71.5639   29.7158  -70.3780 C.2       10 UNK         0.5551 
     20 N         -71.9067   28.4370  -70.4799 N.am      10 UNK        -0.7319 
     21 O         -71.5061   30.2488  -69.2726 O.2       10 UNK        -0.5018 
     22 N         -71.1387   29.7532  -72.8945 N.am      10 UNK        -0.4509 
     23 C         -70.1230   28.9626  -73.2607 C.2       10 UNK         0.4899 
     24 O         -69.0935   28.8203  -72.6004 O.2       10 UNK        -0.4839 
     25 CA        -70.2796   28.1888  -74.5849 C.3       9 UNK         0.0222 
     26 CB        -70.5579   26.7021  -74.3064 C.3       9 UNK        -0.1966 
     27 N         -71.3404   28.7109  -75.4526 N.am      9 UNK        -0.4218 
     28 C         -71.3092   29.8680  -76.1243 C.2       9 UNK         0.5020 
     29 O         -70.3365   30.6248  -76.1362 O.2       9 UNK        -0.5274 
     30 CA        -72.5875   30.2281  -76.9101 C.3       8 UNK         0.0270 
     31 CB        -72.5375   31.6508  -77.5006 C.3       8 UNK        -0.1976 
     32 N         -72.8791   29.2759  -77.9873 N.am      8 UNK        -0.4313 
     33 C         -73.3381   28.0292  -77.8221 C.2       8 UNK         0.5041 
     34 O         -73.5363   27.5101  -76.7171 O.2       8 UNK        -0.5577 
     35 CA        -73.5960   27.2186  -79.0981 C.3       7 UNK         0.0284 
     36 CB        -72.2867   26.6293  -79.6499 C.3       7 UNK        -0.1958 
     37 N         -74.5027   26.1331  -78.7477 N.am      7 UNK        -0.4454 
     38 C         -75.6038   25.7693  -79.4117 C.2       7 UNK         0.5089 
     39 O         -75.9189   26.2164  -80.5152 O.2       7 UNK        -0.5125 
     40 CA        -76.5191   24.7345  -78.7252 C.3       6 UNK         0.0408 
     41 CB        -76.3689   23.3578  -79.3915 C.3       6 UNK        -0.1791 
     42 N         -76.2845   24.5960  -77.2813 N.am      6 UNK        -0.4762 
     43 C         -76.5637   25.5346  -76.3652 C.2       6 UNK         0.5007 
     44 O         -77.1049   26.6088  -76.6322 O.2       6 UNK        -0.5032 
     45 CA        -76.2070   25.1854  -74.9132 C.3       5 UNK         0.0783 
     46 C46       -75.9584   26.4463  -74.0482 C.3       11 UNK        -0.0857 
     47 S47       -75.3005   26.0266  -72.3968 S.3       11 UNK        -0.2512 
     48 C48       -76.6416   26.5824  -71.2900 C.3       11 UNK         0.0225 
     49 N         -77.3107   24.3848  -74.3977 N.am      5 UNK        -0.4615 
     50 C         -77.2198   23.1449  -73.9104 C.2       4 UNK         0.5053 
     51 O         -76.1750   22.4952  -73.8702 O.2       4 UNK        -0.5105 
     52 CA        -78.5176   22.5232  -73.3798 C.3       4 UNK         0.0263 
     53 CB        -78.9135   23.1659  -72.0397 C.3       4 UNK        -0.1981 
     54 N         -79.6130   22.6865  -74.3377 N.am      4 UNK        -0.4224 
     55 C         -80.1501   21.6948  -75.0629 C.2       3 UNK         0.4895 
     56 O         -79.7785   20.5219  -75.0008 O.2       3 UNK        -0.5091 
     57 CA        -81.3117   22.0497  -76.0109 C.3       3 UNK         0.0250 
     58 CB        -82.6582   21.6674  -75.3746 C.3       3 UNK        -0.1996 
     59 N         -81.3415   23.4649  -76.3866 N.am      3 UNK        -0.4254 
     60 C         -80.5111   24.0254  -77.2779 C.2       2 UNK         0.5004 
     61 O         -79.6919   23.3860  -77.9370 O.2       2 UNK        -0.5226 
     62 CA        -80.5890   25.5545  -77.4635 C.3       2 UNK         0.0269 
     63 CB        -81.3490   25.8998  -78.7543 C.3       2 UNK        -0.1926 
     64 N         -81.1850   26.2931  -76.3404 N.am      2 UNK        -0.4687 
     65 C         -80.7087   26.2890  -75.0883 C.2       1 UNK         0.5165 
     66 O         -79.7409   25.6140  -74.7306 O.2       1 UNK        -0.5079 
     67 H67       -81.4671   25.1767  -70.5529 H         1 UNK         0.0900 
     68 H68       -83.1969   24.8559  -70.7177 H         1 UNK         0.0900 
     69 H69       -82.0206   23.6487  -71.2394 H         1 UNK         0.0900 
     70 H70       -81.0769   26.8882  -71.9886 H         1 UNK         0.2959 
     71 H71       -82.4404   27.3659  -74.3957 H         1 UNK         0.1079 
     72 H72       -80.9174   29.1574  -74.7866 H         1 UNK         0.0837 
     73 H73       -79.6009   28.3931  -73.9603 H         1 UNK         0.0837 
     74 H74       -79.9321   31.3721  -71.5384 H         1 UNK         0.0685 
     75 H75       -79.5313   31.1153  -73.2183 H         1 UNK         0.0685 
     76 H76       -78.9385   27.9031  -71.8522 H         1 UNK         0.1434 
     77 H77       -74.8358   28.5838  -70.8705 H         1 UNK         0.1329 
     78 H78       -77.3876   31.9101  -71.7427 H         1 UNK         0.1335 
     79 H79       -75.1648   32.2901  -70.7895 H         1 UNK         0.0680 
     80 H80       -74.2346   30.9351  -70.1954 H         1 UNK         0.0680 
     81 H81       -71.6749   32.4775  -72.5153 H         1 UNK         0.1032 
     82 H82       -72.2708   32.3221  -70.8961 H         1 UNK         0.1032 
     83 H83       -70.2217   30.9356  -71.4668 H         1 UNK         0.0461 
     84 H84       -72.1151   27.9128  -69.6451 H         1 UNK         0.3453 
     85 H85       -71.9520   27.9928  -71.3821 H         1 UNK         0.3453 
     86 H86       -71.9556   29.7959  -73.4861 H         1 UNK         0.2984 
     87 H87       -69.3325   28.2664  -75.1231 H         1 UNK         0.0554 
     88 H88       -69.7758   26.2661  -73.6826 H         1 UNK         0.0847 
     89 H89       -70.5909   26.1253  -75.2310 H         1 UNK         0.0847 
     90 H90       -71.5073   26.5583  -73.7883 H         1 UNK         0.0847 
     91 H91       -72.1671   28.1301  -75.5847 H         1 UNK         0.3141 
     92 H92       -73.4157   30.2000  -76.1975 H         1 UNK         0.0743 
     93 H93       -71.7416   31.7553  -78.2398 H         1 UNK         0.0784 
     94 H94       -73.4800   31.9152  -77.9809 H         1 UNK         0.0784 
     95 H95       -72.3573   32.3912  -76.7196 H         1 UNK         0.0784 
     96 H96       -72.7044   29.6031  -78.9273 H         1 UNK         0.3213 
     97 H97       -74.0539   27.8736  -79.8430 H         1 UNK         0.0855 
     98 H98       -71.7858   25.9990  -78.9135 H         1 UNK         0.0814 
     99 H99       -71.5888   27.4176  -79.9348 H         1 UNK         0.0814 
    100 H100      -72.4701   26.0239  -80.5378 H         1 UNK         0.0814 
    101 H101      -74.3764   25.7847  -77.8063 H         1 UNK         0.3105 
    102 H102      -77.5484   25.0688  -78.8684 H         1 UNK         0.0547 
    103 H103      -77.0743   22.6381  -78.9751 H         1 UNK         0.0837 
    104 H104      -75.3624   22.9558  -79.2700 H         1 UNK         0.0837 
    105 H105      -76.5685   23.4191  -80.4622 H         1 UNK         0.0837 
    106 H106      -75.8811   23.7218  -76.9741 H         1 UNK         0.3020 
    107 H107      -75.2815   24.6050  -74.9320 H         1 UNK         0.1245 
    108 H108      -76.8738   27.0332  -73.9517 H         1 UNK         0.0781 
    109 H109      -75.2297   27.1014  -74.5297 H         1 UNK         0.0781 
    110 H110      -76.3890   26.3123  -70.2639 H         1 UNK         0.0836 
    111 H111      -77.5514   26.0348  -71.5396 H         1 UNK         0.0836 
    112 H112      -78.2230   24.8381  -74.4495 H         1 UNK         0.3022 
    113 H113      -78.3230   21.4646  -73.1958 H         1 UNK         0.0747 
    114 H114      -79.7637   22.6498  -71.5947 H         1 UNK         0.0793 
    115 H115      -78.0929   23.1146  -71.3227 H         1 UNK         0.0793 
    116 H116      -79.1822   24.2163  -72.1559 H         1 UNK         0.0793 
    117 H117      -79.9404   23.6342  -74.4920 H         1 UNK         0.3047 
    118 H118      -81.1858   21.4543  -76.9180 H         1 UNK         0.0822 
    119 H119      -83.4885   21.8619  -76.0535 H         1 UNK         0.0807 
    120 H120      -82.8410   22.2199  -74.4523 H         1 UNK         0.0807 
    121 H121      -82.6852   20.6051  -75.1276 H         1 UNK         0.0807 
    122 H122      -81.9823   24.0598  -75.8781 H         1 UNK         0.2946 
    123 H123      -79.5607   25.9062  -77.5702 H         1 UNK         0.1144 
    124 H124      -81.3131   26.9692  -78.9634 H         1 UNK         0.0793 
    125 H125      -82.3966   25.6011  -78.6976 H         1 UNK         0.0793 
    126 H126      -80.9106   25.3903  -79.6139 H         1 UNK         0.0793 
    127 H127      -81.9914   26.8623  -76.5559 H         1 UNK         0.2896 
@<TRIPOS>BOND
     1    1    2 1    
     2    1   67 1    
     3    1   68 1    
     4    1   69 1    
     5    2    3 2    
     6    2    4 am   BACKBONE|DICT|INTERRES
     7    4    5 1    
     8    4   70 1    
     9    5    6 1    
    10    5   65 1    
    11    5   71 1    
    12    6    7 1    
    13    6   72 1    
    14    6   73 1    
    15    7    8 1    
    16    8    9 1    
    17    8   74 1    
    18    8   75 1    
    19    9   10 ar   
    20    9   14 ar   
    21   10   11 ar   
    22   10   76 1    
    23   11   12 ar   
    24   11   48 1    
    25   12   13 ar   
    26   12   77 1    
    27   13   14 ar   
    28   13   15 1    
    29   14   78 1    
    30   15   16 1    
    31   15   79 1    
    32   15   80 1    
    33   16   17 1    
    34   17   18 1    
    35   17   81 1    
    36   17   82 1    
    37   18   19 1    
    38   18   22 1    
    39   18   83 1    
    40   19   20 am   BACKBONE|DICT|INTERRES
    41   19   21 2    
    42   20   84 1    
    43   20   85 1    
    44   22   23 am   BACKBONE|DICT|INTERRES
    45   22   86 1    
    46   23   24 2    
    47   23   25 1    
    48   25   26 1    
    49   25   27 1    
    50   25   87 1    
    51   26   88 1    
    52   26   89 1    
    53   26   90 1    
    54   27   28 am   BACKBONE|DICT|INTERRES
    55   27   91 1    
    56   28   29 2    
    57   28   30 1    
    58   30   31 1    
    59   30   32 1    
    60   30   92 1    
    61   31   93 1    
    62   31   94 1    
    63   31   95 1    
    64   32   33 am   BACKBONE|DICT|INTERRES
    65   32   96 1    
    66   33   34 2    
    67   33   35 1    
    68   35   36 1    
    69   35   37 1    
    70   35   97 1    
    71   36   98 1    
    72   36   99 1    
    73   36  100 1    
    74   37   38 am   BACKBONE|DICT|INTERRES
    75   37  101 1    
    76   38   39 2    
    77   38   40 1    
    78   40   41 1    
    79   40   42 1    
    80   40  102 1    
    81   41  103 1    
    82   41  104 1    
    83   41  105 1    
    84   42   43 am   BACKBONE|DICT|INTERRES
    85   42  106 1    
    86   43   44 2    
    87   43   45 1    
    88   45   46 1    
    89   45   49 1    
    90   45  107 1    
    91   46   47 1    
    92   46  108 1    
    93   46  109 1    
    94   47   48 1    
    95   48  110 1    
    96   48  111 1    
    97   49   50 am   BACKBONE|DICT|INTERRES
    98   49  112 1    
    99   50   51 2    
   100   50   52 1    
   101   52   53 1    
   102   52   54 1    
   103   52  113 1    
   104   53  114 1    
   105   53  115 1    
   106   53  116 1    
   107   54   55 am   BACKBONE|DICT|INTERRES
   108   54  117 1    
   109   55   56 2    
   110   55   57 1    
   111   57   58 1    
   112   57   59 1    
   113   57  118 1    
   114   58  119 1    
   115   58  120 1    
   116   58  121 1    
   117   59   60 am   BACKBONE|DICT|INTERRES
   118   59  122 1    
   119   60   61 2    
   120   60   62 1    
   121   62   63 1    
   122   62   64 1    
   123   62  123 1    
   124   63  124 1    
   125   63  125 1    
   126   63  126 1    
   127   64   65 am   BACKBONE|DICT|INTERRES
   128   64  127 1    
   129   65   66 2    
@<TRIPOS>SUBSTRUCTURE
     1 UNK         1 GROUP             0       ****    0 ROOT    
