@<TRIPOS>MOLECULE
3R135
127   129    1
SMALL
USER_CHARGES


@<TRIPOS>ATOM
      1 CA        -82.3595   29.7272  -73.7657 C.3       0 UNK        -0.1998 
      2 C         -83.3073   28.5653  -73.4771 C.2       0 UNK         0.4909 
      3 O         -84.5169   28.7222  -73.6287 O.2       0 UNK        -0.5240 
      4 N         -82.8191   27.3837  -73.0714 N.am      1 UNK        -0.4739 
      5 CA        -81.4067   27.0330  -72.8550 C.3       1 UNK         0.0864 
      6 C6        -81.2078   26.1418  -71.6031 C.3       11 UNK        -0.0881 
      7 S7        -81.5051   27.1130  -70.0859 S.3       11 UNK        -0.2682 
      8 C8        -79.8602   27.1242  -69.2849 C.3       11 UNK         0.0289 
      9 C9        -78.7147   27.6646  -70.1441 C.ar      11 UNK        -0.0687 
     10 C10       -78.8802   28.7665  -70.9922 C.ar      11 UNK        -0.0823 
     11 C11       -77.8204   29.2306  -71.7788 C.ar      11 UNK        -0.0830 
     12 C12       -76.5678   28.6240  -71.6539 C.ar      11 UNK        -0.1021 
     13 C13       -76.3718   27.5338  -70.8003 C.ar      11 UNK        -0.0753 
     14 C14       -77.4563   27.0601  -70.0559 C.ar      11 UNK        -0.0933 
     15 C15       -75.0143   26.8467  -70.6372 C.3       11 UNK         0.0166 
     16 S16       -73.8129   27.1312  -71.9857 S.3       11 UNK        -0.2615 
     17 C17       -72.9854   28.6715  -71.4466 C.3       11 UNK        -0.0865 
     18 CA        -72.8909   29.7603  -72.5507 C.3       10 UNK         0.0862 
     19 C         -72.1962   31.0389  -71.9967 C.2       10 UNK         0.5551 
     20 N         -71.0226   31.4245  -72.4829 N.am      10 UNK        -0.7319 
     21 O         -72.7358   31.6921  -71.1072 O.2       10 UNK        -0.5018 
     22 N         -72.3114   29.2244  -73.7918 N.am      10 UNK        -0.4509 
     23 C         -72.3859   29.7912  -75.0006 C.2       10 UNK         0.4899 
     24 O         -72.9233   30.8790  -75.2098 O.2       10 UNK        -0.4839 
     25 CA        -71.7718   29.0248  -76.1897 C.3       9 UNK         0.0222 
     26 CB        -70.3495   29.5327  -76.4996 C.3       9 UNK        -0.1966 
     27 N         -71.8131   27.5557  -76.0788 N.am      9 UNK        -0.4218 
     28 C         -71.1372   26.7531  -75.2426 C.2       9 UNK         0.5020 
     29 O         -70.3601   27.1715  -74.3832 O.2       9 UNK        -0.5274 
     30 CA        -71.3718   25.2366  -75.3562 C.3       8 UNK         0.0270 
     31 CB        -71.6466   24.6043  -73.9795 C.3       8 UNK        -0.1976 
     32 N         -72.4812   24.8940  -76.2498 N.am      8 UNK        -0.4313 
     33 C         -72.3484   24.3575  -77.4688 C.2       8 UNK         0.5041 
     34 O         -71.2667   24.1876  -78.0327 O.2       8 UNK        -0.5577 
     35 CA        -73.6405   23.9185  -78.1714 C.3       7 UNK         0.0284 
     36 CB        -74.1978   22.6357  -77.5318 C.3       7 UNK        -0.1958 
     37 N         -74.6679   24.9591  -78.1492 N.am      7 UNK        -0.4454 
     38 C         -74.7503   25.9619  -79.0331 C.2       7 UNK         0.5089 
     39 O         -73.9380   26.1437  -79.9403 O.2       7 UNK        -0.5125 
     40 CA        -75.9539   26.9122  -78.9046 C.3       6 UNK         0.0408 
     41 CB        -77.0703   26.4883  -79.8718 C.3       6 UNK        -0.1791 
     42 N         -76.4844   26.9786  -77.5387 N.am      6 UNK        -0.4762 
     43 C         -75.9125   27.7053  -76.5661 C.2       6 UNK         0.5007 
     44 O         -74.9083   28.3919  -76.7440 O.2       6 UNK        -0.5032 
     45 CA        -76.5349   27.6328  -75.1578 C.3       5 UNK         0.0783 
     46 C46       -77.6926   28.6574  -74.9869 C.3       11 UNK        -0.0857 
     47 S47       -77.1190   30.2591  -74.3267 S.3       11 UNK        -0.2512 
     48 C48       -78.0400   30.3942  -72.7467 C.3       11 UNK         0.0225 
     49 N         -76.9428   26.2784  -74.7738 N.am      5 UNK        -0.4615 
     50 C         -76.1345   25.2139  -74.6766 C.2       4 UNK         0.5053 
     51 O         -74.9567   25.2098  -75.0309 O.2       4 UNK        -0.5105 
     52 CA        -76.7500   23.9287  -74.1097 C.3       4 UNK         0.0263 
     53 CB        -76.9375   24.0449  -72.5887 C.3       4 UNK        -0.1981 
     54 N         -78.0392   23.6589  -74.7418 N.am      4 UNK        -0.4224 
     55 C         -78.2293   22.7926  -75.7456 C.2       3 UNK         0.4895 
     56 O         -77.3554   22.0436  -76.1826 O.2       3 UNK        -0.5091 
     57 CA        -79.6301   22.7545  -76.3867 C.3       3 UNK         0.0250 
     58 CB        -80.4815   21.6451  -75.7485 C.3       3 UNK        -0.1996 
     59 N         -80.3612   24.0241  -76.3161 N.am      3 UNK        -0.4254 
     60 C         -79.9546   25.1757  -76.8679 C.2       2 UNK         0.5004 
     61 O         -78.9058   25.3082  -77.4976 O.2       2 UNK        -0.5226 
     62 CA        -80.8376   26.4096  -76.6276 C.3       2 UNK         0.0269 
     63 CB        -81.9706   26.4689  -77.6641 C.3       2 UNK        -0.1926 
     64 N         -81.4036   26.5463  -75.2770 N.am      2 UNK        -0.4687 
     65 C         -80.7363   26.4524  -74.1153 C.2       1 UNK         0.5165 
     66 O         -79.6022   25.9851  -74.0198 O.2       1 UNK        -0.5079 
     67 H67       -82.9033   30.5601  -74.2110 H         1 UNK         0.0900 
     68 H68       -81.5737   29.4395  -74.4634 H         1 UNK         0.0900 
     69 H69       -81.9023   30.0862  -72.8440 H         1 UNK         0.0900 
     70 H70       -83.4755   26.6389  -72.8829 H         1 UNK         0.2959 
     71 H71       -80.8411   27.9448  -72.6756 H         1 UNK         0.1079 
     72 H72       -81.8849   25.2863  -71.6219 H         1 UNK         0.0837 
     73 H73       -80.1994   25.7261  -71.5558 H         1 UNK         0.0837 
     74 H74       -79.9223   27.7254  -68.3771 H         1 UNK         0.0685 
     75 H75       -79.6403   26.1052  -68.9622 H         1 UNK         0.0685 
     76 H76       -79.8414   29.2579  -71.0462 H         1 UNK         0.1434 
     77 H77       -75.7481   29.0053  -72.2384 H         1 UNK         0.1329 
     78 H78       -77.3146   26.2181  -69.3919 H         1 UNK         0.1335 
     79 H79       -74.5737   27.1467  -69.6857 H         1 UNK         0.0680 
     80 H80       -75.1713   25.7703  -70.5656 H         1 UNK         0.0680 
     81 H81       -73.5113   29.0728  -70.5780 H         1 UNK         0.1032 
     82 H82       -71.9871   28.4048  -71.0947 H         1 UNK         0.1032 
     83 H83       -73.9058   30.0719  -72.7993 H         1 UNK         0.0461 
     84 H84       -70.5827   32.2549  -72.1187 H         1 UNK         0.3453 
     85 H85       -70.5775   30.8929  -73.2135 H         1 UNK         0.3453 
     86 H86       -71.7918   28.3572  -73.7109 H         1 UNK         0.2984 
     87 H87       -72.3896   29.2627  -77.0566 H         1 UNK         0.0554 
     88 H88       -69.9363   29.0427  -77.3811 H         1 UNK         0.0847 
     89 H89       -69.6630   29.3654  -75.6694 H         1 UNK         0.0847 
     90 H90       -70.3564   30.6051  -76.6993 H         1 UNK         0.0847 
     91 H91       -72.4710   27.1063  -76.7006 H         1 UNK         0.3141 
     92 H92       -70.4398   24.8112  -75.7334 H         1 UNK         0.0743 
     93 H93       -70.8453   24.8215  -73.2720 H         1 UNK         0.0784 
     94 H94       -72.5760   24.9736  -73.5467 H         1 UNK         0.0784 
     95 H95       -71.7243   23.5196  -74.0536 H         1 UNK         0.0784 
     96 H96       -73.4180   25.0046  -75.8559 H         1 UNK         0.3213 
     97 H97       -73.3928   23.6895  -79.2106 H         1 UNK         0.0855 
     98 H98       -74.4904   22.7896  -76.4924 H         1 UNK         0.0814 
     99 H99       -73.4544   21.8376  -77.5462 H         1 UNK         0.0814 
    100 H100      -75.0727   22.2720  -78.0712 H         1 UNK         0.0814 
    101 H101      -75.3532   24.9168  -77.4081 H         1 UNK         0.3105 
    102 H102      -75.6223   27.9100  -79.2002 H         1 UNK         0.0547 
    103 H103      -77.9364   27.1456  -79.7947 H         1 UNK         0.0837 
    104 H104      -76.7241   26.5268  -80.9054 H         1 UNK         0.0837 
    105 H105      -77.4051   25.4680  -79.6812 H         1 UNK         0.0837 
    106 H106      -77.3100   26.4177  -77.3399 H         1 UNK         0.3020 
    107 H107      -75.7337   27.8919  -74.4614 H         1 UNK         0.1245 
    108 H108      -78.4395   28.2747  -74.2943 H         1 UNK         0.0781 
    109 H109      -78.2320   28.8273  -75.9207 H         1 UNK         0.0781 
    110 H110      -77.7441   31.3188  -72.2497 H         1 UNK         0.0836 
    111 H111      -79.1009   30.4963  -72.9801 H         1 UNK         0.0836 
    112 H112      -77.9072   26.1773  -74.4649 H         1 UNK         0.3022 
    113 H113      -76.0549   23.1082  -74.3004 H         1 UNK         0.0747 
    114 H114      -77.3769   23.1380  -72.1736 H         1 UNK         0.0793 
    115 H115      -77.5804   24.8835  -72.3164 H         1 UNK         0.0793 
    116 H116      -75.9767   24.1934  -72.0960 H         1 UNK         0.0793 
    117 H117      -78.8040   24.2733  -74.4804 H         1 UNK         0.3047 
    118 H118      -79.4925   22.5161  -77.4436 H         1 UNK         0.0822 
    119 H119      -79.9749   20.6806  -75.8094 H         1 UNK         0.0807 
    120 H120      -81.4401   21.5371  -76.2563 H         1 UNK         0.0807 
    121 H121      -80.6784   21.8435  -74.6941 H         1 UNK         0.0807 
    122 H122      -81.2274   24.0262  -75.7972 H         1 UNK         0.2946 
    123 H123      -80.1974   27.2800  -76.7857 H         1 UNK         0.1144 
    124 H124      -81.5781   26.3866  -78.6789 H         1 UNK         0.0793 
    125 H125      -82.5136   27.4125  -77.6065 H         1 UNK         0.0793 
    126 H126      -82.6881   25.6593  -77.5251 H         1 UNK         0.0793 
    127 H127      -82.3490   26.8991  -75.2305 H         1 UNK         0.2896 
@<TRIPOS>BOND
     1    1    2 1    
     2    1   67 1    
     3    1   68 1    
     4    1   69 1    
     5    2    3 2    
     6    2    4 am   BACKBONE|DICT|INTERRES
     7    4    5 1    
     8    4   70 1    
     9    5    6 1    
    10    5   65 1    
    11    5   71 1    
    12    6    7 1    
    13    6   72 1    
    14    6   73 1    
    15    7    8 1    
    16    8    9 1    
    17    8   74 1    
    18    8   75 1    
    19    9   10 ar   
    20    9   14 ar   
    21   10   11 ar   
    22   10   76 1    
    23   11   12 ar   
    24   11   48 1    
    25   12   13 ar   
    26   12   77 1    
    27   13   14 ar   
    28   13   15 1    
    29   14   78 1    
    30   15   16 1    
    31   15   79 1    
    32   15   80 1    
    33   16   17 1    
    34   17   18 1    
    35   17   81 1    
    36   17   82 1    
    37   18   19 1    
    38   18   22 1    
    39   18   83 1    
    40   19   20 am   BACKBONE|DICT|INTERRES
    41   19   21 2    
    42   20   84 1    
    43   20   85 1    
    44   22   23 am   BACKBONE|DICT|INTERRES
    45   22   86 1    
    46   23   24 2    
    47   23   25 1    
    48   25   26 1    
    49   25   27 1    
    50   25   87 1    
    51   26   88 1    
    52   26   89 1    
    53   26   90 1    
    54   27   28 am   BACKBONE|DICT|INTERRES
    55   27   91 1    
    56   28   29 2    
    57   28   30 1    
    58   30   31 1    
    59   30   32 1    
    60   30   92 1    
    61   31   93 1    
    62   31   94 1    
    63   31   95 1    
    64   32   33 am   BACKBONE|DICT|INTERRES
    65   32   96 1    
    66   33   34 2    
    67   33   35 1    
    68   35   36 1    
    69   35   37 1    
    70   35   97 1    
    71   36   98 1    
    72   36   99 1    
    73   36  100 1    
    74   37   38 am   BACKBONE|DICT|INTERRES
    75   37  101 1    
    76   38   39 2    
    77   38   40 1    
    78   40   41 1    
    79   40   42 1    
    80   40  102 1    
    81   41  103 1    
    82   41  104 1    
    83   41  105 1    
    84   42   43 am   BACKBONE|DICT|INTERRES
    85   42  106 1    
    86   43   44 2    
    87   43   45 1    
    88   45   46 1    
    89   45   49 1    
    90   45  107 1    
    91   46   47 1    
    92   46  108 1    
    93   46  109 1    
    94   47   48 1    
    95   48  110 1    
    96   48  111 1    
    97   49   50 am   BACKBONE|DICT|INTERRES
    98   49  112 1    
    99   50   51 2    
   100   50   52 1    
   101   52   53 1    
   102   52   54 1    
   103   52  113 1    
   104   53  114 1    
   105   53  115 1    
   106   53  116 1    
   107   54   55 am   BACKBONE|DICT|INTERRES
   108   54  117 1    
   109   55   56 2    
   110   55   57 1    
   111   57   58 1    
   112   57   59 1    
   113   57  118 1    
   114   58  119 1    
   115   58  120 1    
   116   58  121 1    
   117   59   60 am   BACKBONE|DICT|INTERRES
   118   59  122 1    
   119   60   61 2    
   120   60   62 1    
   121   62   63 1    
   122   62   64 1    
   123   62  123 1    
   124   63  124 1    
   125   63  125 1    
   126   63  126 1    
   127   64   65 am   BACKBONE|DICT|INTERRES
   128   64  127 1    
   129   65   66 2    
@<TRIPOS>SUBSTRUCTURE
     1 UNK         1 GROUP             0       ****    0 ROOT    
