@<TRIPOS>MOLECULE
3R135
127   129    1
SMALL
USER_CHARGES


@<TRIPOS>ATOM
      1 CA        -84.5933   24.7770  -72.9146 C.3       0 UNK        -0.1998 
      2 C         -84.0613   26.1404  -73.3294 C.2       0 UNK         0.4909 
      3 O         -84.6996   26.8303  -74.1248 O.2       0 UNK        -0.5240 
      4 N         -82.8965   26.5337  -72.7960 N.am      1 UNK        -0.4739 
      5 CA        -82.2170   27.7992  -73.1108 C.3       1 UNK         0.0864 
      6 C6        -81.1748   28.1556  -72.0198 C.3       11 UNK        -0.0881 
      7 S7        -81.0122   29.9521  -71.7347 S.3       11 UNK        -0.2682 
      8 C8        -80.1391   29.9920  -70.1318 C.3       11 UNK         0.0289 
      9 C9        -78.7270   29.4409  -70.2600 C.ar      11 UNK        -0.0687 
     10 C10       -78.4966   28.0724  -70.1023 C.ar      11 UNK        -0.0823 
     11 C11       -77.2350   27.5316  -70.3594 C.ar      11 UNK        -0.0830 
     12 C12       -76.1741   28.3816  -70.6845 C.ar      11 UNK        -0.1021 
     13 C13       -76.3832   29.7584  -70.8033 C.ar      11 UNK        -0.0753 
     14 C14       -77.6631   30.2836  -70.5962 C.ar      11 UNK        -0.0933 
     15 C15       -75.2349   30.6676  -71.2057 C.3       11 UNK         0.0166 
     16 S16       -74.9837   30.6225  -73.0059 S.3       11 UNK        -0.2615 
     17 C17       -73.6622   31.8660  -73.2080 C.3       11 UNK        -0.0865 
     18 CA        -72.2605   31.2703  -73.5090 C.3       10 UNK         0.0862 
     19 C         -71.5830   30.6231  -72.2640 C.2       10 UNK         0.5551 
     20 N         -70.9566   29.4567  -72.3686 N.am      10 UNK        -0.7319 
     21 O         -71.6068   31.2020  -71.1806 O.2       10 UNK        -0.5018 
     22 N         -72.2828   30.4107  -74.7031 N.am      10 UNK        -0.4509 
     23 C         -71.3180   30.3579  -75.6276 C.2       10 UNK         0.4899 
     24 O         -70.3234   31.0859  -75.6234 O.2       10 UNK        -0.4839 
     25 CA        -71.4968   29.2972  -76.7319 C.3       9 UNK         0.0222 
     26 CB        -70.2692   29.1893  -77.6605 C.3       9 UNK        -0.1966 
     27 N         -71.8562   27.9669  -76.2219 N.am      9 UNK        -0.4218 
     28 C         -71.1987   27.2411  -75.3009 C.2       9 UNK         0.5020 
     29 O         -70.2326   27.6611  -74.6627 O.2       9 UNK        -0.5274 
     30 CA        -71.6883   25.8055  -75.0211 C.3       8 UNK         0.0270 
     31 CB        -72.3785   25.7350  -73.6483 C.3       8 UNK        -0.1976 
     32 N         -72.5839   25.2619  -76.0467 N.am      8 UNK        -0.4313 
     33 C         -72.2321   24.9741  -77.3086 C.2       8 UNK         0.5041 
     34 O         -71.0774   25.0458  -77.7304 O.2       8 UNK        -0.5577 
     35 CA        -73.3636   24.5839  -78.2783 C.3       7 UNK         0.0284 
     36 CB        -73.5608   23.0602  -78.2957 C.3       7 UNK        -0.1958 
     37 N         -74.6419   25.2411  -77.9824 N.am      7 UNK        -0.4454 
     38 C         -74.8496   26.5669  -77.9926 C.2       7 UNK         0.5089 
     39 O         -73.9865   27.3952  -78.2816 O.2       7 UNK        -0.5125 
     40 CA        -76.2329   27.0513  -77.5316 C.3       6 UNK         0.0408 
     41 CB        -77.2777   26.9136  -78.6508 C.3       6 UNK        -0.1791 
     42 N         -76.6656   26.3336  -76.3301 N.am      6 UNK        -0.4762 
     43 C         -76.1500   26.5517  -75.1098 C.2       6 UNK         0.5007 
     44 O         -75.3347   27.4413  -74.8699 O.2       6 UNK        -0.5032 
     45 CA        -76.5764   25.5992  -73.9749 C.3       5 UNK         0.0783 
     46 C46       -77.7454   26.1970  -73.1646 C.3       11 UNK        -0.0857 
     47 S47       -78.1091   25.2291  -71.6551 S.3       11 UNK        -0.2512 
     48 C48       -77.0482   26.0221  -70.3926 C.3       11 UNK         0.0225 
     49 N         -76.8841   24.2567  -74.4740 N.am      5 UNK        -0.4615 
     50 C         -75.9577   23.3818  -74.8855 C.2       4 UNK         0.5053 
     51 O         -74.7502   23.6154  -74.8709 O.2       4 UNK        -0.5105 
     52 CA        -76.4613   22.0442  -75.4569 C.3       4 UNK         0.0263 
     53 CB        -76.6348   21.0121  -74.3322 C.3       4 UNK        -0.1981 
     54 N         -77.7160   22.1697  -76.2046 N.am      4 UNK        -0.4224 
     55 C         -77.8869   22.9444  -77.2847 C.2       3 UNK         0.4895 
     56 O         -76.9824   23.6034  -77.7980 O.2       3 UNK        -0.5091 
     57 CA        -79.3073   23.0615  -77.8637 C.3       3 UNK         0.0250 
     58 CB        -80.2711   21.9418  -77.4071 C.3       3 UNK        -0.1996 
     59 N         -79.8842   24.3863  -77.5961 N.am      3 UNK        -0.4254 
     60 C         -80.0962   24.9479  -76.3955 C.2       2 UNK         0.5004 
     61 O         -79.7978   24.4087  -75.3259 O.2       2 UNK        -0.5226 
     62 CA        -80.7398   26.3452  -76.3821 C.3       2 UNK         0.0269 
     63 CB        -81.8521   26.5025  -77.4429 C.3       2 UNK        -0.1926 
     64 N         -81.2793   26.5991  -75.0478 N.am      2 UNK        -0.4687 
     65 C         -81.5916   27.7934  -74.5271 C.2       1 UNK         0.5165 
     66 O         -81.4245   28.8571  -75.1252 O.2       1 UNK        -0.5079 
     67 H67       -83.9333   24.2797  -72.2040 H         1 UNK         0.0900 
     68 H68       -85.5734   24.8823  -72.4502 H         1 UNK         0.0900 
     69 H69       -84.6972   24.1337  -73.7880 H         1 UNK         0.0900 
     70 H70       -82.4198   25.9250  -72.1455 H         1 UNK         0.2959 
     71 H71       -82.9872   28.5744  -73.1154 H         1 UNK         0.1079 
     72 H72       -80.1966   27.7321  -72.2539 H         1 UNK         0.0837 
     73 H73       -81.4702   27.7146  -71.0664 H         1 UNK         0.0837 
     74 H74       -80.7049   29.4276  -69.3889 H         1 UNK         0.0685 
     75 H75       -80.1053   31.0217  -69.7726 H         1 UNK         0.0685 
     76 H76       -79.3184   27.4122  -69.8616 H         1 UNK         0.1434 
     77 H77       -75.1952   27.9722  -70.8944 H         1 UNK         0.1329 
     78 H78       -77.8382   31.3427  -70.7278 H         1 UNK         0.1335 
     79 H79       -74.3196   30.3564  -70.7000 H         1 UNK         0.0680 
     80 H80       -75.4347   31.6925  -70.8888 H         1 UNK         0.0680 
     81 H81       -73.6263   32.5226  -72.3367 H         1 UNK         0.1032 
     82 H82       -73.9544   32.5139  -74.0357 H         1 UNK         0.1032 
     83 H83       -71.6257   32.1299  -73.7317 H         1 UNK         0.0461 
     84 H84       -70.5187   29.0643  -71.5509 H         1 UNK         0.3453 
     85 H85       -70.8613   28.9869  -73.2615 H         1 UNK         0.3453 
     86 H86       -73.0570   29.7632  -74.7599 H         1 UNK         0.2984 
     87 H87       -72.3405   29.6283  -77.3391 H         1 UNK         0.0554 
     88 H88       -70.0497   30.1464  -78.1352 H         1 UNK         0.0847 
     89 H89       -70.4389   28.4648  -78.4572 H         1 UNK         0.0847 
     90 H90       -69.3763   28.8828  -77.1142 H         1 UNK         0.0847 
     91 H91       -72.6499   27.5380  -76.6861 H         1 UNK         0.3141 
     92 H92       -70.8030   25.1672  -74.9876 H         1 UNK         0.0743 
     93 H93       -71.7064   26.0688  -72.8564 H         1 UNK         0.0784 
     94 H94       -73.2637   26.3690  -73.6075 H         1 UNK         0.0784 
     95 H95       -72.6804   24.7162  -73.4052 H         1 UNK         0.0784 
     96 H96       -73.5359   25.0611  -75.7600 H         1 UNK         0.3213 
     97 H97       -73.0602   24.9006  -79.2785 H         1 UNK         0.0855 
     98 H98       -73.8404   22.6797  -77.3136 H         1 UNK         0.0814 
     99 H99       -72.6415   22.5527  -78.5909 H         1 UNK         0.0814 
    100 H100      -74.3362   22.7662  -79.0034 H         1 UNK         0.0814 
    101 H101      -75.4332   24.6327  -77.7811 H         1 UNK         0.3105 
    102 H102      -76.1503   28.1130  -77.2879 H         1 UNK         0.0547 
    103 H103      -78.2419   27.3186  -78.3462 H         1 UNK         0.0837 
    104 H104      -77.4268   25.8781  -78.9545 H         1 UNK         0.0837 
    105 H105      -76.9654   27.4659  -79.5380 H         1 UNK         0.0837 
    106 H106      -77.2622   25.5294  -76.4650 H         1 UNK         0.3020 
    107 H107      -75.7167   25.5186  -73.3053 H         1 UNK         0.1245 
    108 H108      -78.6512   26.2248  -73.7706 H         1 UNK         0.0781 
    109 H109      -77.5456   27.2373  -72.9071 H         1 UNK         0.0781 
    110 H110      -76.0077   25.7627  -70.5936 H         1 UNK         0.0836 
    111 H111      -77.2863   25.6065  -69.4125 H         1 UNK         0.0836 
    112 H112      -77.8674   24.0163  -74.5428 H         1 UNK         0.3022 
    113 H113      -75.7022   21.6728  -76.1476 H         1 UNK         0.0747 
    114 H114      -76.9099   20.0345  -74.7286 H         1 UNK         0.0793 
    115 H115      -75.7057   20.8840  -73.7747 H         1 UNK         0.0793 
    116 H116      -77.4031   21.3156  -73.6197 H         1 UNK         0.0793 
    117 H117      -78.5227   21.6935  -75.8279 H         1 UNK         0.3047 
    118 H118      -79.1983   22.9796  -78.9463 H         1 UNK         0.0822 
    119 H119      -81.2236   22.0137  -77.9324 H         1 UNK         0.0807 
    120 H120      -80.4867   21.9826  -76.3389 H         1 UNK         0.0807 
    121 H121      -79.8618   20.9548  -77.6274 H         1 UNK         0.0807 
    122 H122      -80.1431   24.9144  -78.4175 H         1 UNK         0.2946 
    123 H123      -79.9476   27.0709  -76.5771 H         1 UNK         0.1144 
    124 H124      -82.6267   25.7432  -77.3265 H         1 UNK         0.0793 
    125 H125      -81.4582   26.4235  -78.4564 H         1 UNK         0.0793 
    126 H126      -82.3352   27.4774  -77.3750 H         1 UNK         0.0793 
    127 H127      -81.3835   25.7709  -74.4752 H         1 UNK         0.2896 
@<TRIPOS>BOND
     1    1    2 1    
     2    1   67 1    
     3    1   68 1    
     4    1   69 1    
     5    2    3 2    
     6    2    4 am   BACKBONE|DICT|INTERRES
     7    4    5 1    
     8    4   70 1    
     9    5    6 1    
    10    5   65 1    
    11    5   71 1    
    12    6    7 1    
    13    6   72 1    
    14    6   73 1    
    15    7    8 1    
    16    8    9 1    
    17    8   74 1    
    18    8   75 1    
    19    9   10 ar   
    20    9   14 ar   
    21   10   11 ar   
    22   10   76 1    
    23   11   12 ar   
    24   11   48 1    
    25   12   13 ar   
    26   12   77 1    
    27   13   14 ar   
    28   13   15 1    
    29   14   78 1    
    30   15   16 1    
    31   15   79 1    
    32   15   80 1    
    33   16   17 1    
    34   17   18 1    
    35   17   81 1    
    36   17   82 1    
    37   18   19 1    
    38   18   22 1    
    39   18   83 1    
    40   19   20 am   BACKBONE|DICT|INTERRES
    41   19   21 2    
    42   20   84 1    
    43   20   85 1    
    44   22   23 am   BACKBONE|DICT|INTERRES
    45   22   86 1    
    46   23   24 2    
    47   23   25 1    
    48   25   26 1    
    49   25   27 1    
    50   25   87 1    
    51   26   88 1    
    52   26   89 1    
    53   26   90 1    
    54   27   28 am   BACKBONE|DICT|INTERRES
    55   27   91 1    
    56   28   29 2    
    57   28   30 1    
    58   30   31 1    
    59   30   32 1    
    60   30   92 1    
    61   31   93 1    
    62   31   94 1    
    63   31   95 1    
    64   32   33 am   BACKBONE|DICT|INTERRES
    65   32   96 1    
    66   33   34 2    
    67   33   35 1    
    68   35   36 1    
    69   35   37 1    
    70   35   97 1    
    71   36   98 1    
    72   36   99 1    
    73   36  100 1    
    74   37   38 am   BACKBONE|DICT|INTERRES
    75   37  101 1    
    76   38   39 2    
    77   38   40 1    
    78   40   41 1    
    79   40   42 1    
    80   40  102 1    
    81   41  103 1    
    82   41  104 1    
    83   41  105 1    
    84   42   43 am   BACKBONE|DICT|INTERRES
    85   42  106 1    
    86   43   44 2    
    87   43   45 1    
    88   45   46 1    
    89   45   49 1    
    90   45  107 1    
    91   46   47 1    
    92   46  108 1    
    93   46  109 1    
    94   47   48 1    
    95   48  110 1    
    96   48  111 1    
    97   49   50 am   BACKBONE|DICT|INTERRES
    98   49  112 1    
    99   50   51 2    
   100   50   52 1    
   101   52   53 1    
   102   52   54 1    
   103   52  113 1    
   104   53  114 1    
   105   53  115 1    
   106   53  116 1    
   107   54   55 am   BACKBONE|DICT|INTERRES
   108   54  117 1    
   109   55   56 2    
   110   55   57 1    
   111   57   58 1    
   112   57   59 1    
   113   57  118 1    
   114   58  119 1    
   115   58  120 1    
   116   58  121 1    
   117   59   60 am   BACKBONE|DICT|INTERRES
   118   59  122 1    
   119   60   61 2    
   120   60   62 1    
   121   62   63 1    
   122   62   64 1    
   123   62  123 1    
   124   63  124 1    
   125   63  125 1    
   126   63  126 1    
   127   64   65 am   BACKBONE|DICT|INTERRES
   128   64  127 1    
   129   65   66 2    
@<TRIPOS>SUBSTRUCTURE
     1 UNK         1 GROUP             0       ****    0 ROOT    
