@<TRIPOS>MOLECULE
3R135
127   129    1
SMALL
USER_CHARGES


@<TRIPOS>ATOM
      1 CA        -82.4624   24.2708  -69.2365 C.3       0 UNK        -0.1998 
      2 C         -82.9278   24.7513  -70.6027 C.2       0 UNK         0.4909 
      3 O         -84.0609   24.4739  -70.9967 O.2       0 UNK        -0.5240 
      4 N         -82.0602   25.4674  -71.3303 N.am      1 UNK        -0.4739 
      5 CA        -82.3438   26.0176  -72.6645 C.3       1 UNK         0.0864 
      6 C6        -81.4106   27.2057  -73.0093 C.3       11 UNK        -0.0881 
      7 S7        -81.7040   28.6311  -71.9103 S.3       11 UNK        -0.2682 
      8 C8        -80.1586   28.6997  -70.9401 C.3       11 UNK         0.0289 
      9 C9        -78.9456   29.2269  -71.7070 C.ar      11 UNK        -0.0687 
     10 C10       -79.0652   30.2401  -72.6672 C.ar      11 UNK        -0.0823 
     11 C11       -77.9379   30.7490  -73.3202 C.ar      11 UNK        -0.0830 
     12 C12       -76.6755   30.2461  -72.9904 C.ar      11 UNK        -0.1021 
     13 C13       -76.5383   29.2305  -72.0405 C.ar      11 UNK        -0.0753 
     14 C14       -77.6751   28.7280  -71.4013 C.ar      11 UNK        -0.0933 
     15 C15       -75.1592   28.6823  -71.7104 C.3       11 UNK         0.0166 
     16 S16       -74.1761   29.9036  -70.7853 S.3       11 UNK        -0.2615 
     17 C17       -72.5590   29.0661  -70.6604 C.3       11 UNK        -0.0865 
     18 CA        -71.5628   29.5309  -71.7570 C.3       10 UNK         0.0862 
     19 C         -70.1153   29.0419  -71.4498 C.2       10 UNK         0.5551 
     20 N         -69.4669   28.2603  -72.3062 N.am      10 UNK        -0.7319 
     21 O         -69.5642   29.3881  -70.4078 O.2       10 UNK        -0.5018 
     22 N         -72.0502   29.1711  -73.0953 N.am      10 UNK        -0.4509 
     23 C         -71.6957   29.7563  -74.2448 C.2       10 UNK         0.4899 
     24 O         -70.9733   30.7514  -74.3158 O.2       10 UNK        -0.4839 
     25 CA        -72.2447   29.0970  -75.5277 C.3       9 UNK         0.0222 
     26 CB        -71.4093   29.4313  -76.7806 C.3       9 UNK        -0.1966 
     27 N         -72.4301   27.6430  -75.4006 N.am      9 UNK        -0.4218 
     28 C         -71.4923   26.7307  -75.0964 C.2       9 UNK         0.5020 
     29 O         -70.3101   27.0034  -74.8849 O.2       9 UNK        -0.5274 
     30 CA        -71.9536   25.2746  -74.9630 C.3       8 UNK         0.0270 
     31 CB        -72.5247   25.0214  -73.5562 C.3       8 UNK        -0.1976 
     32 N         -72.9608   24.9349  -75.9714 N.am      8 UNK        -0.4313 
     33 C         -72.7568   24.0916  -76.9913 C.2       8 UNK         0.5041 
     34 O         -71.6961   23.4978  -77.1930 O.2       8 UNK        -0.5577 
     35 CA        -73.9349   23.8495  -77.9476 C.3       7 UNK         0.0284 
     36 CB        -74.8900   22.7895  -77.3742 C.3       7 UNK        -0.1958 
     37 N         -74.6913   25.0583  -78.2782 N.am      7 UNK        -0.4454 
     38 C         -74.2428   26.0478  -79.0642 C.2       7 UNK         0.5089 
     39 O         -73.1010   26.0985  -79.5216 O.2       7 UNK        -0.5125 
     40 CA        -75.2448   27.1562  -79.4212 C.3       6 UNK         0.0408 
     41 CB        -76.2220   26.6684  -80.5038 C.3       6 UNK        -0.1791 
     42 N         -76.0001   27.5814  -78.2436 N.am      6 UNK        -0.4762 
     43 C         -75.7429   28.6884  -77.5324 C.2       6 UNK         0.5007 
     44 O         -74.8912   29.5184  -77.8495 O.2       6 UNK        -0.5032 
     45 CA        -76.5533   28.9007  -76.2331 C.3       5 UNK         0.0783 
     46 C46       -77.6844   29.9497  -76.4167 C.3       11 UNK        -0.0857 
     47 S47       -77.1415   31.6093  -75.8883 S.3       11 UNK        -0.2512 
     48 C48       -78.1005   31.8629  -74.3532 C.3       11 UNK         0.0225 
     49 N         -77.0598   27.6527  -75.6542 N.am      5 UNK        -0.4615 
     50 C         -76.2870   26.6801  -75.1559 C.2       4 UNK         0.5053 
     51 O         -75.0576   26.7314  -75.1287 O.2       4 UNK        -0.5105 
     52 CA        -76.9926   25.4102  -74.6581 C.3       4 UNK         0.0263 
     53 CB        -77.3128   25.5315  -73.1610 C.3       4 UNK        -0.1981 
     54 N         -78.2142   25.0626  -75.3936 N.am      4 UNK        -0.4224 
     55 C         -78.3102   24.8578  -76.7170 C.2       3 UNK         0.4895 
     56 O         -77.3786   25.0531  -77.4993 O.2       3 UNK        -0.5091 
     57 CA        -79.6720   24.3931  -77.2723 C.3       3 UNK         0.0250 
     58 CB        -79.5065   23.3669  -78.4129 C.3       3 UNK        -0.1996 
     59 N         -80.6110   23.9037  -76.2511 N.am      3 UNK        -0.4254 
     60 C         -80.4844   22.8347  -75.4505 C.2       2 UNK         0.5004 
     61 O         -79.5191   22.0700  -75.4713 O.2       2 UNK        -0.5226 
     62 CA        -81.6094   22.6310  -74.4159 C.3       2 UNK         0.0269 
     63 CB        -81.4266   21.3462  -73.5857 C.3       2 UNK        -0.1926 
     64 N         -81.7225   23.7703  -73.4977 N.am      2 UNK        -0.4687 
     65 C         -82.3026   24.9473  -73.7772 C.2       1 UNK         0.5165 
     66 O         -82.7832   25.2095  -74.8813 O.2       1 UNK        -0.5079 
     67 H67       -82.4936   23.1825  -69.1909 H         1 UNK         0.0900 
     68 H68       -83.1168   24.6635  -68.4587 H         1 UNK         0.0900 
     69 H69       -81.4444   24.5909  -69.0158 H         1 UNK         0.0900 
     70 H70       -81.1481   25.6764  -70.9514 H         1 UNK         0.2959 
     71 H71       -83.3695   26.3946  -72.6598 H         1 UNK         0.1079 
     72 H72       -80.3627   26.9065  -72.9676 H         1 UNK         0.0837 
     73 H73       -81.5852   27.5524  -74.0300 H         1 UNK         0.0837 
     74 H74       -79.9553   27.7072  -70.5357 H         1 UNK         0.0685 
     75 H75       -80.3239   29.3518  -70.0817 H         1 UNK         0.0685 
     76 H76       -80.0399   30.6468  -72.8982 H         1 UNK         0.1434 
     77 H77       -75.7937   30.6468  -73.4711 H         1 UNK         0.1329 
     78 H78       -77.5683   27.9537  -70.6538 H         1 UNK         0.1335 
     79 H79       -74.6549   28.4182  -72.6399 H         1 UNK         0.0680 
     80 H80       -75.2359   27.7640  -71.1261 H         1 UNK         0.0680 
     81 H81       -72.1642   29.2915  -69.6677 H         1 UNK         0.1032 
     82 H82       -72.6932   27.9831  -70.6875 H         1 UNK         0.1032 
     83 H83       -71.5139   30.6207  -71.7116 H         1 UNK         0.0461 
     84 H84       -68.5305   27.9638  -72.0823 H         1 UNK         0.3453 
     85 H85       -69.8861   27.9693  -73.1826 H         1 UNK         0.3453 
     86 H86       -72.6302   28.3490  -73.1460 H         1 UNK         0.2984 
     87 H87       -73.2398   29.5180  -75.6727 H         1 UNK         0.0554 
     88 H88       -71.3764   30.5074  -76.9543 H         1 UNK         0.0847 
     89 H89       -71.8388   28.9751  -77.6729 H         1 UNK         0.0847 
     90 H90       -70.3801   29.0840  -76.6860 H         1 UNK         0.0847 
     91 H91       -73.3948   27.3217  -75.4613 H         1 UNK         0.3141 
     92 H92       -71.0688   24.6449  -75.0786 H         1 UNK         0.0743 
     93 H93       -71.7870   25.2581  -72.7880 H         1 UNK         0.0784 
     94 H94       -73.4100   25.6249  -73.3547 H         1 UNK         0.0784 
     95 H95       -72.8001   23.9746  -73.4270 H         1 UNK         0.0784 
     96 H96       -73.8579   25.4020  -75.8892 H         1 UNK         0.3213 
     97 H97       -73.5215   23.4554  -78.8788 H         1 UNK         0.0855 
     98 H98       -75.3565   23.1218  -76.4470 H         1 UNK         0.0814 
     99 H99       -74.3588   21.8616  -77.1578 H         1 UNK         0.0814 
    100 H100      -75.6862   22.5500  -78.0795 H         1 UNK         0.0814 
    101 H101      -75.6645   25.0797  -77.9765 H         1 UNK         0.3105 
    102 H102      -74.6820   27.9951  -79.8362 H         1 UNK         0.0547 
    103 H103      -76.8270   25.8282  -80.1603 H         1 UNK         0.0837 
    104 H104      -76.9006   27.4645  -80.8099 H         1 UNK         0.0837 
    105 H105      -75.6849   26.3408  -81.3949 H         1 UNK         0.0837 
    106 H106      -76.6903   26.9261  -77.8928 H         1 UNK         0.3020 
    107 H107      -75.8329   29.2827  -75.5073 H         1 UNK         0.1245 
    108 H108      -78.5681   29.6791  -75.8366 H         1 UNK         0.0781 
    109 H109      -78.0311   30.0029  -77.4508 H         1 UNK         0.0781 
    110 H110      -77.7922   32.8059  -73.9002 H         1 UNK         0.0836 
    111 H111      -79.1505   31.9831  -74.6249 H         1 UNK         0.0836 
    112 H112      -78.0603   27.5254  -75.6477 H         1 UNK         0.3022 
    113 H113      -76.2928   24.5829  -74.7867 H         1 UNK         0.0747 
    114 H114      -76.4135   25.7589  -72.5866 H         1 UNK         0.0793 
    115 H115      -77.7215   24.6021  -72.7639 H         1 UNK         0.0793 
    116 H116      -78.0317   26.3270  -72.9667 H         1 UNK         0.0793 
    117 H117      -79.0322   24.8667  -74.8375 H         1 UNK         0.3047 
    118 H118      -80.1341   25.2843  -77.6993 H         1 UNK         0.0822 
    119 H119      -78.9360   23.7892  -79.2413 H         1 UNK         0.0807 
    120 H120      -80.4721   23.0576  -78.8126 H         1 UNK         0.0807 
    121 H121      -78.9776   22.4730  -78.0808 H         1 UNK         0.0807 
    122 H122      -81.4361   24.4794  -76.1023 H         1 UNK         0.2946 
    123 H123      -82.5435   22.5340  -74.9746 H         1 UNK         0.1144 
    124 H124      -81.3699   20.4685  -74.2311 H         1 UNK         0.0793 
    125 H125      -82.2644   21.1913  -72.9055 H         1 UNK         0.0793 
    126 H126      -80.5123   21.3742  -72.9915 H         1 UNK         0.0793 
    127 H127      -81.3407   23.6433  -72.5716 H         1 UNK         0.2896 
@<TRIPOS>BOND
     1    1    2 1    
     2    1   67 1    
     3    1   68 1    
     4    1   69 1    
     5    2    3 2    
     6    2    4 am   BACKBONE|DICT|INTERRES
     7    4    5 1    
     8    4   70 1    
     9    5    6 1    
    10    5   65 1    
    11    5   71 1    
    12    6    7 1    
    13    6   72 1    
    14    6   73 1    
    15    7    8 1    
    16    8    9 1    
    17    8   74 1    
    18    8   75 1    
    19    9   10 ar   
    20    9   14 ar   
    21   10   11 ar   
    22   10   76 1    
    23   11   12 ar   
    24   11   48 1    
    25   12   13 ar   
    26   12   77 1    
    27   13   14 ar   
    28   13   15 1    
    29   14   78 1    
    30   15   16 1    
    31   15   79 1    
    32   15   80 1    
    33   16   17 1    
    34   17   18 1    
    35   17   81 1    
    36   17   82 1    
    37   18   19 1    
    38   18   22 1    
    39   18   83 1    
    40   19   20 am   BACKBONE|DICT|INTERRES
    41   19   21 2    
    42   20   84 1    
    43   20   85 1    
    44   22   23 am   BACKBONE|DICT|INTERRES
    45   22   86 1    
    46   23   24 2    
    47   23   25 1    
    48   25   26 1    
    49   25   27 1    
    50   25   87 1    
    51   26   88 1    
    52   26   89 1    
    53   26   90 1    
    54   27   28 am   BACKBONE|DICT|INTERRES
    55   27   91 1    
    56   28   29 2    
    57   28   30 1    
    58   30   31 1    
    59   30   32 1    
    60   30   92 1    
    61   31   93 1    
    62   31   94 1    
    63   31   95 1    
    64   32   33 am   BACKBONE|DICT|INTERRES
    65   32   96 1    
    66   33   34 2    
    67   33   35 1    
    68   35   36 1    
    69   35   37 1    
    70   35   97 1    
    71   36   98 1    
    72   36   99 1    
    73   36  100 1    
    74   37   38 am   BACKBONE|DICT|INTERRES
    75   37  101 1    
    76   38   39 2    
    77   38   40 1    
    78   40   41 1    
    79   40   42 1    
    80   40  102 1    
    81   41  103 1    
    82   41  104 1    
    83   41  105 1    
    84   42   43 am   BACKBONE|DICT|INTERRES
    85   42  106 1    
    86   43   44 2    
    87   43   45 1    
    88   45   46 1    
    89   45   49 1    
    90   45  107 1    
    91   46   47 1    
    92   46  108 1    
    93   46  109 1    
    94   47   48 1    
    95   48  110 1    
    96   48  111 1    
    97   49   50 am   BACKBONE|DICT|INTERRES
    98   49  112 1    
    99   50   51 2    
   100   50   52 1    
   101   52   53 1    
   102   52   54 1    
   103   52  113 1    
   104   53  114 1    
   105   53  115 1    
   106   53  116 1    
   107   54   55 am   BACKBONE|DICT|INTERRES
   108   54  117 1    
   109   55   56 2    
   110   55   57 1    
   111   57   58 1    
   112   57   59 1    
   113   57  118 1    
   114   58  119 1    
   115   58  120 1    
   116   58  121 1    
   117   59   60 am   BACKBONE|DICT|INTERRES
   118   59  122 1    
   119   60   61 2    
   120   60   62 1    
   121   62   63 1    
   122   62   64 1    
   123   62  123 1    
   124   63  124 1    
   125   63  125 1    
   126   63  126 1    
   127   64   65 am   BACKBONE|DICT|INTERRES
   128   64  127 1    
   129   65   66 2    
@<TRIPOS>SUBSTRUCTURE
     1 UNK         1 GROUP             0       ****    0 ROOT    
