@<TRIPOS>MOLECULE
3R135
127   129    1
SMALL
USER_CHARGES


@<TRIPOS>ATOM
      1 CA        -85.3345   27.6971  -73.6330 C.3       0 UNK        -0.1998 
      2 C         -83.9162   28.2173  -73.8108 C.2       0 UNK         0.4909 
      3 O         -83.7304   29.3776  -74.1782 O.2       0 UNK        -0.5240 
      4 N         -82.9131   27.3675  -73.5535 N.am      1 UNK        -0.4739 
      5 CA        -81.4847   27.7023  -73.6563 C.3       1 UNK         0.0864 
      6 C6        -80.5914   26.6974  -72.8828 C.3       11 UNK        -0.0881 
      7 S7        -81.1155   26.4018  -71.1578 S.3       11 UNK        -0.2682 
      8 C8        -80.7129   27.9799  -70.3387 C.3       11 UNK         0.0289 
      9 C9        -79.2344   28.3300  -70.4297 C.ar      11 UNK        -0.0687 
     10 C10       -78.2794   27.5193  -69.8106 C.ar      11 UNK        -0.0823 
     11 C11       -76.9218   27.8319  -69.9041 C.ar      11 UNK        -0.0830 
     12 C12       -76.5250   28.9863  -70.5856 C.ar      11 UNK        -0.1021 
     13 C13       -77.4660   29.7985  -71.2323 C.ar      11 UNK        -0.0753 
     14 C14       -78.8204   29.4610  -71.1406 C.ar      11 UNK        -0.0933 
     15 C15       -77.0861   31.0377  -72.0496 C.3       11 UNK         0.0166 
     16 S16       -75.2998   31.3677  -72.2570 S.3       11 UNK        -0.2615 
     17 C17       -74.8020   30.0421  -73.4122 C.3       11 UNK        -0.0865 
     18 CA        -73.2596   29.9628  -73.5976 C.3       10 UNK         0.0862 
     19 C         -72.5142   29.1794  -72.4747 C.2       10 UNK         0.5551 
     20 N         -71.4158   28.4919  -72.7687 N.am      10 UNK        -0.7319 
     21 O         -72.9191   29.1984  -71.3160 O.2       10 UNK        -0.5018 
     22 N         -72.9186   29.4606  -74.9355 N.am      10 UNK        -0.4509 
     23 C         -72.3747   30.1812  -75.9232 C.2       10 UNK         0.4899 
     24 O         -72.1941   31.3984  -75.8603 O.2       10 UNK        -0.4839 
     25 CA        -71.9614   29.4194  -77.2007 C.3       9 UNK         0.0222 
     26 CB        -70.8174   30.1222  -77.9624 C.3       9 UNK        -0.1966 
     27 N         -71.6362   28.0025  -76.9850 N.am      9 UNK        -0.4218 
     28 C         -70.6899   27.4890  -76.1794 C.2       9 UNK         0.5020 
     29 O         -69.9626   28.1785  -75.4625 O.2       9 UNK        -0.5274 
     30 CA        -70.5544   25.9534  -76.1290 C.3       8 UNK         0.0270 
     31 CB        -70.2723   25.4545  -74.6993 C.3       8 UNK        -0.1976 
     32 N         -71.7679   25.3000  -76.6185 N.am      8 UNK        -0.4313 
     33 C         -71.9198   24.7162  -77.8147 C.2       8 UNK         0.5041 
     34 O         -71.0057   24.5661  -78.6256 O.2       8 UNK        -0.5577 
     35 CA        -73.3412   24.2519  -78.1890 C.3       7 UNK         0.0284 
     36 CB        -73.4827   22.7341  -77.9939 C.3       7 UNK        -0.1958 
     37 N         -74.3898   24.9481  -77.4327 N.am      7 UNK        -0.4454 
     38 C         -74.6927   26.2470  -77.5927 C.2       7 UNK         0.5089 
     39 O         -74.1575   26.9659  -78.4361 O.2       7 UNK        -0.5125 
     40 CA        -75.7009   26.8770  -76.6133 C.3       6 UNK         0.0408 
     41 CB        -77.1028   26.8989  -77.2352 C.3       6 UNK        -0.1791 
     42 N         -75.7516   26.2134  -75.3070 N.am      6 UNK        -0.4762 
     43 C         -74.7155   26.1179  -74.4580 C.2       6 UNK         0.5007 
     44 O         -73.6156   26.6250  -74.6808 O.2       6 UNK        -0.5032 
     45 CA        -74.9231   25.2965  -73.1675 C.3       5 UNK         0.0783 
     46 C46       -75.2937   26.2588  -72.0184 C.3       11 UNK        -0.0857 
     47 S47       -75.6047   25.4432  -70.4154 S.3       11 UNK        -0.2512 
     48 C48       -75.8726   26.8890  -69.3312 C.3       11 UNK         0.0225 
     49 N         -75.9128   24.2232  -73.3196 N.am      5 UNK        -0.4615 
     50 C         -75.8879   23.2418  -74.2303 C.2       4 UNK         0.5053 
     51 O         -74.9970   23.1088  -75.0692 O.2       4 UNK        -0.5105 
     52 CA        -77.0890   22.2809  -74.2594 C.3       4 UNK         0.0263 
     53 CB        -77.8803   22.2253  -72.9314 C.3       4 UNK        -0.1981 
     54 N         -77.9832   22.5822  -75.3850 N.am      4 UNK        -0.4224 
     55 C         -78.6153   23.7416  -75.6233 C.2       3 UNK         0.4895 
     56 O         -78.5017   24.7450  -74.9124 O.2       3 UNK        -0.5091 
     57 CA        -79.5179   23.7933  -76.8676 C.3       3 UNK         0.0250 
     58 CB        -80.4635   22.5798  -76.9631 C.3       3 UNK        -0.1996 
     59 N         -80.3194   25.0125  -76.8102 N.am      3 UNK        -0.4254 
     60 C         -80.5594   25.8645  -77.8123 C.2       2 UNK         0.5004 
     61 O         -80.1573   25.6951  -78.9639 O.2       2 UNK        -0.5226 
     62 CA        -81.4003   27.1141  -77.4812 C.3       2 UNK         0.0269 
     63 CB        -82.7044   27.1223  -78.2975 C.3       2 UNK        -0.1926 
     64 N         -81.7414   27.2075  -76.0565 N.am      2 UNK        -0.4687 
     65 C         -81.0006   27.8174  -75.1192 C.2       1 UNK         0.5165 
     66 O         -79.9654   28.4349  -75.3668 O.2       1 UNK        -0.5079 
     67 H67       -85.3496   26.6597  -73.2994 H         1 UNK         0.0900 
     68 H68       -85.8641   28.2981  -72.8943 H         1 UNK         0.0900 
     69 H69       -85.8777   27.7586  -74.5756 H         1 UNK         0.0900 
     70 H70       -83.1198   26.4358  -73.2209 H         1 UNK         0.2959 
     71 H71       -81.3423   28.6892  -73.2111 H         1 UNK         0.1079 
     72 H72       -79.5499   27.0259  -72.8839 H         1 UNK         0.0837 
     73 H73       -80.5920   25.7275  -73.3838 H         1 UNK         0.0837 
     74 H74       -80.9947   27.9090  -69.2873 H         1 UNK         0.0685 
     75 H75       -81.3309   28.7716  -70.7644 H         1 UNK         0.0685 
     76 H76       -78.5916   26.6260  -69.2867 H         1 UNK         0.1434 
     77 H77       -75.4712   29.2164  -70.6403 H         1 UNK         0.1329 
     78 H78       -79.5568   30.0830  -71.6313 H         1 UNK         0.1335 
     79 H79       -77.5313   31.9103  -71.5699 H         1 UNK         0.0680 
     80 H80       -77.5401   30.9663  -73.0394 H         1 UNK         0.0680 
     81 H81       -75.2822   30.2642  -74.3666 H         1 UNK         0.1032 
     82 H82       -75.2100   29.0821  -73.0962 H         1 UNK         0.1032 
     83 H83       -72.8672   30.9769  -73.5063 H         1 UNK         0.0461 
     84 H84       -70.9392   27.9971  -72.0326 H         1 UNK         0.3453 
     85 H85       -71.0315   28.4940  -73.7060 H         1 UNK         0.3453 
     86 H86       -73.0154   28.4553  -75.0476 H         1 UNK         0.2984 
     87 H87       -72.8397   29.4284  -77.8475 H         1 UNK         0.0554 
     88 H88       -71.1027   31.1326  -78.2578 H         1 UNK         0.0847 
     89 H89       -70.5574   29.5837  -78.8737 H         1 UNK         0.0847 
     90 H90       -69.9173   30.2039  -77.3523 H         1 UNK         0.0847 
     91 H91       -72.2095   27.3551  -77.5127 H         1 UNK         0.3141 
     92 H92       -69.7013   25.6881  -76.7566 H         1 UNK         0.0743 
     93 H93       -69.3388   25.8670  -74.3141 H         1 UNK         0.0784 
     94 H94       -71.0661   25.7404  -74.0081 H         1 UNK         0.0784 
     95 H95       -70.1789   24.3688  -74.6707 H         1 UNK         0.0784 
     96 H96       -72.5847   25.4160  -76.0286 H         1 UNK         0.3213 
     97 H97       -73.4889   24.4725  -79.2486 H         1 UNK         0.0855 
     98 H98       -73.2807   22.4379  -76.9641 H         1 UNK         0.0814 
     99 H99       -72.7784   22.1947  -78.6285 H         1 UNK         0.0814 
    100 H100      -74.4835   22.3889  -78.2538 H         1 UNK         0.0814 
    101 H101      -74.8313   24.4247  -76.6831 H         1 UNK         0.3105 
    102 H102      -75.3902   27.9097  -76.4406 H         1 UNK         0.0547 
    103 H103      -77.4444   25.8960  -77.4886 H         1 UNK         0.0837 
    104 H104      -77.8324   27.3428  -76.5587 H         1 UNK         0.0837 
    105 H105      -77.1133   27.4859  -78.1545 H         1 UNK         0.0837 
    106 H106      -76.6273   25.7663  -75.0531 H         1 UNK         0.3020 
    107 H107      -73.9669   24.8244  -72.9323 H         1 UNK         0.1245 
    108 H108      -76.1919   26.8159  -72.2918 H         1 UNK         0.0781 
    109 H109      -74.5010   26.9934  -71.8686 H         1 UNK         0.0781 
    110 H110      -74.9240   27.4102  -69.1907 H         1 UNK         0.0836 
    111 H111      -76.1829   26.5452  -68.3435 H         1 UNK         0.0836 
    112 H112      -76.7028   24.2683  -72.6924 H         1 UNK         0.3022 
    113 H113      -76.6787   21.2861  -74.4402 H         1 UNK         0.0747 
    114 H114      -78.6380   21.4424  -72.9648 H         1 UNK         0.0793 
    115 H115      -77.2231   21.9965  -72.0912 H         1 UNK         0.0793 
    116 H116      -78.3917   23.1619  -72.7064 H         1 UNK         0.0793 
    117 H117      -78.1074   21.8298  -76.0478 H         1 UNK         0.3047 
    118 H118      -78.8667   23.8142  -77.7439 H         1 UNK         0.0822 
    119 H119      -81.1504   22.6823  -77.8036 H         1 UNK         0.0807 
    120 H120      -81.0623   22.4633  -76.0586 H         1 UNK         0.0807 
    121 H121      -79.9139   21.6510  -77.1175 H         1 UNK         0.0807 
    122 H122      -80.6090   25.2840  -75.8817 H         1 UNK         0.2946 
    123 H123      -80.8078   27.9850  -77.7716 H         1 UNK         0.1144 
    124 H124      -83.2891   28.0212  -78.1007 H         1 UNK         0.0793 
    125 H125      -83.3294   26.2578  -78.0700 H         1 UNK         0.0793 
    126 H126      -82.4970   27.1018  -79.3683 H         1 UNK         0.0793 
    127 H127      -82.5869   26.7407  -75.7602 H         1 UNK         0.2896 
@<TRIPOS>BOND
     1    1    2 1    
     2    1   67 1    
     3    1   68 1    
     4    1   69 1    
     5    2    3 2    
     6    2    4 am   BACKBONE|DICT|INTERRES
     7    4    5 1    
     8    4   70 1    
     9    5    6 1    
    10    5   65 1    
    11    5   71 1    
    12    6    7 1    
    13    6   72 1    
    14    6   73 1    
    15    7    8 1    
    16    8    9 1    
    17    8   74 1    
    18    8   75 1    
    19    9   10 ar   
    20    9   14 ar   
    21   10   11 ar   
    22   10   76 1    
    23   11   12 ar   
    24   11   48 1    
    25   12   13 ar   
    26   12   77 1    
    27   13   14 ar   
    28   13   15 1    
    29   14   78 1    
    30   15   16 1    
    31   15   79 1    
    32   15   80 1    
    33   16   17 1    
    34   17   18 1    
    35   17   81 1    
    36   17   82 1    
    37   18   19 1    
    38   18   22 1    
    39   18   83 1    
    40   19   20 am   BACKBONE|DICT|INTERRES
    41   19   21 2    
    42   20   84 1    
    43   20   85 1    
    44   22   23 am   BACKBONE|DICT|INTERRES
    45   22   86 1    
    46   23   24 2    
    47   23   25 1    
    48   25   26 1    
    49   25   27 1    
    50   25   87 1    
    51   26   88 1    
    52   26   89 1    
    53   26   90 1    
    54   27   28 am   BACKBONE|DICT|INTERRES
    55   27   91 1    
    56   28   29 2    
    57   28   30 1    
    58   30   31 1    
    59   30   32 1    
    60   30   92 1    
    61   31   93 1    
    62   31   94 1    
    63   31   95 1    
    64   32   33 am   BACKBONE|DICT|INTERRES
    65   32   96 1    
    66   33   34 2    
    67   33   35 1    
    68   35   36 1    
    69   35   37 1    
    70   35   97 1    
    71   36   98 1    
    72   36   99 1    
    73   36  100 1    
    74   37   38 am   BACKBONE|DICT|INTERRES
    75   37  101 1    
    76   38   39 2    
    77   38   40 1    
    78   40   41 1    
    79   40   42 1    
    80   40  102 1    
    81   41  103 1    
    82   41  104 1    
    83   41  105 1    
    84   42   43 am   BACKBONE|DICT|INTERRES
    85   42  106 1    
    86   43   44 2    
    87   43   45 1    
    88   45   46 1    
    89   45   49 1    
    90   45  107 1    
    91   46   47 1    
    92   46  108 1    
    93   46  109 1    
    94   47   48 1    
    95   48  110 1    
    96   48  111 1    
    97   49   50 am   BACKBONE|DICT|INTERRES
    98   49  112 1    
    99   50   51 2    
   100   50   52 1    
   101   52   53 1    
   102   52   54 1    
   103   52  113 1    
   104   53  114 1    
   105   53  115 1    
   106   53  116 1    
   107   54   55 am   BACKBONE|DICT|INTERRES
   108   54  117 1    
   109   55   56 2    
   110   55   57 1    
   111   57   58 1    
   112   57   59 1    
   113   57  118 1    
   114   58  119 1    
   115   58  120 1    
   116   58  121 1    
   117   59   60 am   BACKBONE|DICT|INTERRES
   118   59  122 1    
   119   60   61 2    
   120   60   62 1    
   121   62   63 1    
   122   62   64 1    
   123   62  123 1    
   124   63  124 1    
   125   63  125 1    
   126   63  126 1    
   127   64   65 am   BACKBONE|DICT|INTERRES
   128   64  127 1    
   129   65   66 2    
@<TRIPOS>SUBSTRUCTURE
     1 UNK         1 GROUP             0       ****    0 ROOT    
