@<TRIPOS>MOLECULE
3R135
127   129    1
SMALL
USER_CHARGES


@<TRIPOS>ATOM
      1 CA        -78.2711   21.1831  -73.6535 C.3       0 UNK        -0.1998 
      2 C         -79.4698   22.0456  -73.2851 C.2       0 UNK         0.4909 
      3 O         -80.4904   21.5233  -72.8345 O.2       0 UNK        -0.5240 
      4 N         -79.3465   23.3614  -73.4749 N.am      1 UNK        -0.4739 
      5 CA        -80.4087   24.3528  -73.2885 C.3       1 UNK         0.0864 
      6 C6        -79.8294   25.7197  -72.8351 C.3       11 UNK        -0.0881 
      7 S7        -78.8630   25.6202  -71.2900 S.3       11 UNK        -0.2682 
      8 C8        -79.1651   27.2559  -70.5450 C.3       11 UNK         0.0289 
      9 C9        -78.2669   28.3297  -71.1444 C.ar      11 UNK        -0.0687 
     10 C10       -78.6765   29.0519  -72.2715 C.ar      11 UNK        -0.0823 
     11 C11       -77.8391   30.0250  -72.8268 C.ar      11 UNK        -0.0830 
     12 C12       -76.6206   30.3170  -72.2119 C.ar      11 UNK        -0.1021 
     13 C13       -76.1882   29.5880  -71.1053 C.ar      11 UNK        -0.0753 
     14 C14       -77.0174   28.5965  -70.5709 C.ar      11 UNK        -0.0933 
     15 C15       -74.8089   29.8606  -70.5257 C.3       11 UNK         0.0166 
     16 S16       -73.5084   29.2132  -71.6293 S.3       11 UNK        -0.2615 
     17 C17       -72.4883   30.6813  -71.9839 C.3       11 UNK        -0.0865 
     18 CA        -72.8027   31.3427  -73.3529 C.3       10 UNK         0.0862 
     19 C         -72.0045   32.6751  -73.4861 C.2       10 UNK         0.5551 
     20 N         -71.0018   32.7674  -74.3515 N.am      10 UNK        -0.7319 
     21 O         -72.3035   33.6402  -72.7874 O.2       10 UNK        -0.5018 
     22 N         -72.6520   30.4054  -74.4873 N.am      10 UNK        -0.4509 
     23 C         -73.0769   30.6659  -75.7345 C.2       10 UNK         0.4899 
     24 O         -73.7123   31.6788  -76.0288 O.2       10 UNK        -0.4839 
     25 CA        -72.7442   29.6690  -76.8607 C.3       9 UNK         0.0222 
     26 CB        -71.8215   30.3191  -77.9081 C.3       9 UNK        -0.1966 
     27 N         -72.1280   28.4224  -76.3936 N.am      9 UNK        -0.4218 
     28 C         -72.4958   27.1963  -76.7920 C.2       9 UNK         0.5020 
     29 O         -73.4042   26.9829  -77.5988 O.2       9 UNK        -0.5274 
     30 CA        -71.7366   25.9934  -76.2039 C.3       8 UNK         0.0270 
     31 CB        -70.7358   26.3488  -75.0836 C.3       8 UNK        -0.1976 
     32 N         -72.7288   25.0610  -75.6809 N.am      8 UNK        -0.4313 
     33 C         -72.7504   23.7336  -75.8491 C.2       8 UNK         0.5041 
     34 O         -71.8813   23.1147  -76.4666 O.2       8 UNK        -0.5577 
     35 CA        -73.9518   22.9647  -75.2492 C.3       7 UNK         0.0284 
     36 CB        -73.5915   21.5252  -74.8253 C.3       7 UNK        -0.1958 
     37 N         -74.6344   23.6799  -74.1623 N.am      7 UNK        -0.4454 
     38 C         -74.1197   24.0569  -72.9814 C.2       7 UNK         0.5089 
     39 O         -73.0034   23.7228  -72.5813 O.2       7 UNK        -0.5125 
     40 CA        -74.9910   25.0032  -72.1254 C.3       6 UNK         0.0408 
     41 CB        -74.1528   25.8048  -71.1141 C.3       6 UNK        -0.1791 
     42 N         -75.8486   25.8996  -72.9178 N.am      6 UNK        -0.4762 
     43 C         -75.4855   26.7306  -73.9107 C.2       6 UNK         0.5007 
     44 O         -74.3197   26.9291  -74.2451 O.2       6 UNK        -0.5032 
     45 CA        -76.6303   27.3654  -74.7289 C.3       5 UNK         0.0783 
     46 C46       -76.3106   28.8082  -75.1944 C.3       11 UNK        -0.0857 
     47 S47       -77.8611   29.6933  -75.6039 S.3       11 UNK        -0.2512 
     48 C48       -78.1996   30.7245  -74.1298 C.3       11 UNK         0.0225 
     49 N         -77.0351   26.5538  -75.8860 N.am      5 UNK        -0.4615 
     50 C         -77.3099   25.2464  -75.9459 C.2       4 UNK         0.5053 
     51 O         -77.2488   24.4776  -74.9856 O.2       4 UNK        -0.5105 
     52 CA        -77.7630   24.7204  -77.3153 C.3       4 UNK         0.0263 
     53 CB        -77.8701   23.1835  -77.3519 C.3       4 UNK        -0.1981 
     54 N         -79.0598   25.2998  -77.6707 N.am      4 UNK        -0.4224 
     55 C         -79.2273   26.4460  -78.3468 C.2       3 UNK         0.4895 
     56 O         -78.2874   27.1504  -78.7171 O.2       3 UNK        -0.5091 
     57 CA        -80.6649   26.8872  -78.6858 C.3       3 UNK         0.0250 
     58 CB        -80.9961   26.5431  -80.1474 C.3       3 UNK        -0.1996 
     59 N         -81.6807   26.2906  -77.8149 N.am      3 UNK        -0.4254 
     60 C         -81.9623   26.7223  -76.5789 C.2       2 UNK         0.5004 
     61 O         -81.4415   27.7140  -76.0665 O.2       2 UNK        -0.5226 
     62 CA        -82.9537   25.8907  -75.7374 C.3       2 UNK         0.0269 
     63 CB        -83.7158   24.7993  -76.5258 C.3       2 UNK        -0.1926 
     64 N         -82.2642   25.3215  -74.5711 N.am      2 UNK        -0.4687 
     65 C         -81.1816   24.5292  -74.6125 C.2       1 UNK         0.5165 
     66 O         -80.7577   24.0212  -75.6553 O.2       1 UNK        -0.5079 
     67 H67       -77.4411   21.7810  -74.0311 H         1 UNK         0.0900 
     68 H68       -78.5486   20.4655  -74.4249 H         1 UNK         0.0900 
     69 H69       -77.9221   20.6314  -72.7812 H         1 UNK         0.0900 
     70 H70       -78.5104   23.7179  -73.9328 H         1 UNK         0.2959 
     71 H71       -81.1117   23.9978  -72.5317 H         1 UNK         0.1079 
     72 H72       -79.1967   26.1363  -73.6164 H         1 UNK         0.0837 
     73 H73       -80.6349   26.4406  -72.6874 H         1 UNK         0.0837 
     74 H74       -80.2154   27.5318  -70.6486 H         1 UNK         0.0685 
     75 H75       -78.9811   27.1843  -69.4720 H         1 UNK         0.0685 
     76 H76       -79.6259   28.8315  -72.7403 H         1 UNK         0.1434 
     77 H77       -75.9724   31.0698  -72.6371 H         1 UNK         0.1329 
     78 H78       -76.6879   28.0249  -69.7141 H         1 UNK         0.1335 
     79 H79       -74.6918   30.9336  -70.3703 H         1 UNK         0.0680 
     80 H80       -74.7036   29.3940  -69.5452 H         1 UNK         0.0680 
     81 H81       -71.4417   30.3728  -71.9527 H         1 UNK         0.1032 
     82 H82       -72.6036   31.3981  -71.1686 H         1 UNK         0.1032 
     83 H83       -73.8531   31.6360  -73.3333 H         1 UNK         0.0461 
     84 H84       -70.7478   31.9808  -74.9261 H         1 UNK         0.3453 
     85 H85       -70.4949   33.6350  -74.4293 H         1 UNK         0.3453 
     86 H86       -72.2106   29.5247  -74.2766 H         1 UNK         0.2984 
     87 H87       -73.6974   29.4514  -77.3463 H         1 UNK         0.0554 
     88 H88       -71.6616   29.6567  -78.7589 H         1 UNK         0.0847 
     89 H89       -70.8459   30.5676  -77.4890 H         1 UNK         0.0847 
     90 H90       -72.2542   31.2417  -78.2978 H         1 UNK         0.0847 
     91 H91       -71.3565   28.5025  -75.7478 H         1 UNK         0.3141 
     92 H92       -71.1901   25.5339  -77.0298 H         1 UNK         0.0743 
     93 H93       -69.9485   27.0123  -75.4436 H         1 UNK         0.0784 
     94 H94       -70.2432   25.4518  -74.7074 H         1 UNK         0.0784 
     95 H95       -71.2282   26.8275  -74.2354 H         1 UNK         0.0784 
     96 H96       -73.4849   25.5118  -75.1695 H         1 UNK         0.3213 
     97 H97       -74.6815   22.8913  -76.0562 H         1 UNK         0.0855 
     98 H98       -73.2330   20.9448  -75.6762 H         1 UNK         0.0814 
     99 H99       -74.4579   21.0020  -74.4208 H         1 UNK         0.0814 
    100 H100      -72.8055   21.5097  -74.0699 H         1 UNK         0.0814 
    101 H101      -75.5757   24.0041  -74.3794 H         1 UNK         0.3105 
    102 H102      -75.6706   24.3645  -71.5597 H         1 UNK         0.0547 
    103 H103      -73.3532   26.3522  -71.6127 H         1 UNK         0.0837 
    104 H104      -73.6843   25.1445  -70.3838 H         1 UNK         0.0837 
    105 H105      -74.7631   26.5190  -70.5626 H         1 UNK         0.0837 
    106 H106      -76.8386   25.7830  -72.7425 H         1 UNK         0.3020 
    107 H107      -77.4832   27.4197  -74.0575 H         1 UNK         0.1245 
    108 H108      -75.6774   28.7865  -76.0826 H         1 UNK         0.0781 
    109 H109      -75.7364   29.3660  -74.4562 H         1 UNK         0.0781 
    110 H110      -79.2557   30.9979  -74.1223 H         1 UNK         0.0836 
    111 H111      -77.6462   31.6602  -74.2238 H         1 UNK         0.0836 
    112 H112      -77.1566   27.0775  -76.7443 H         1 UNK         0.3022 
    113 H113      -77.0093   25.0149  -78.0490 H         1 UNK         0.0747 
    114 H114      -78.1646   22.8317  -78.3406 H         1 UNK         0.0793 
    115 H115      -76.9129   22.7184  -77.1154 H         1 UNK         0.0793 
    116 H116      -78.5994   22.8074  -76.6337 H         1 UNK         0.0793 
    117 H117      -79.8719   24.8238  -77.2897 H         1 UNK         0.3047 
    118 H118      -80.7045   27.9735  -78.5770 H         1 UNK         0.0822 
    119 H119      -81.9826   26.9124  -80.4286 H         1 UNK         0.0807 
    120 H120      -80.9760   25.4670  -80.3246 H         1 UNK         0.0807 
    121 H121      -80.2757   26.9988  -80.8284 H         1 UNK         0.0807 
    122 H122      -82.1392   25.4553  -78.1498 H         1 UNK         0.2946 
    123 H123      -83.6922   26.5984  -75.3564 H         1 UNK         0.1144 
    124 H124      -84.2739   25.2328  -77.3568 H         1 UNK         0.0793 
    125 H125      -84.4413   24.2963  -75.8864 H         1 UNK         0.0793 
    126 H126      -83.0560   24.0327  -76.9327 H         1 UNK         0.0793 
    127 H127      -82.5419   25.7070  -73.6790 H         1 UNK         0.2896 
@<TRIPOS>BOND
     1    1    2 1    
     2    1   67 1    
     3    1   68 1    
     4    1   69 1    
     5    2    3 2    
     6    2    4 am   BACKBONE|DICT|INTERRES
     7    4    5 1    
     8    4   70 1    
     9    5    6 1    
    10    5   65 1    
    11    5   71 1    
    12    6    7 1    
    13    6   72 1    
    14    6   73 1    
    15    7    8 1    
    16    8    9 1    
    17    8   74 1    
    18    8   75 1    
    19    9   10 ar   
    20    9   14 ar   
    21   10   11 ar   
    22   10   76 1    
    23   11   12 ar   
    24   11   48 1    
    25   12   13 ar   
    26   12   77 1    
    27   13   14 ar   
    28   13   15 1    
    29   14   78 1    
    30   15   16 1    
    31   15   79 1    
    32   15   80 1    
    33   16   17 1    
    34   17   18 1    
    35   17   81 1    
    36   17   82 1    
    37   18   19 1    
    38   18   22 1    
    39   18   83 1    
    40   19   20 am   BACKBONE|DICT|INTERRES
    41   19   21 2    
    42   20   84 1    
    43   20   85 1    
    44   22   23 am   BACKBONE|DICT|INTERRES
    45   22   86 1    
    46   23   24 2    
    47   23   25 1    
    48   25   26 1    
    49   25   27 1    
    50   25   87 1    
    51   26   88 1    
    52   26   89 1    
    53   26   90 1    
    54   27   28 am   BACKBONE|DICT|INTERRES
    55   27   91 1    
    56   28   29 2    
    57   28   30 1    
    58   30   31 1    
    59   30   32 1    
    60   30   92 1    
    61   31   93 1    
    62   31   94 1    
    63   31   95 1    
    64   32   33 am   BACKBONE|DICT|INTERRES
    65   32   96 1    
    66   33   34 2    
    67   33   35 1    
    68   35   36 1    
    69   35   37 1    
    70   35   97 1    
    71   36   98 1    
    72   36   99 1    
    73   36  100 1    
    74   37   38 am   BACKBONE|DICT|INTERRES
    75   37  101 1    
    76   38   39 2    
    77   38   40 1    
    78   40   41 1    
    79   40   42 1    
    80   40  102 1    
    81   41  103 1    
    82   41  104 1    
    83   41  105 1    
    84   42   43 am   BACKBONE|DICT|INTERRES
    85   42  106 1    
    86   43   44 2    
    87   43   45 1    
    88   45   46 1    
    89   45   49 1    
    90   45  107 1    
    91   46   47 1    
    92   46  108 1    
    93   46  109 1    
    94   47   48 1    
    95   48  110 1    
    96   48  111 1    
    97   49   50 am   BACKBONE|DICT|INTERRES
    98   49  112 1    
    99   50   51 2    
   100   50   52 1    
   101   52   53 1    
   102   52   54 1    
   103   52  113 1    
   104   53  114 1    
   105   53  115 1    
   106   53  116 1    
   107   54   55 am   BACKBONE|DICT|INTERRES
   108   54  117 1    
   109   55   56 2    
   110   55   57 1    
   111   57   58 1    
   112   57   59 1    
   113   57  118 1    
   114   58  119 1    
   115   58  120 1    
   116   58  121 1    
   117   59   60 am   BACKBONE|DICT|INTERRES
   118   59  122 1    
   119   60   61 2    
   120   60   62 1    
   121   62   63 1    
   122   62   64 1    
   123   62  123 1    
   124   63  124 1    
   125   63  125 1    
   126   63  126 1    
   127   64   65 am   BACKBONE|DICT|INTERRES
   128   64  127 1    
   129   65   66 2    
@<TRIPOS>SUBSTRUCTURE
     1 UNK         1 GROUP             0       ****    0 ROOT    
