@<TRIPOS>MOLECULE
3R135
127   129    1
SMALL
USER_CHARGES


@<TRIPOS>ATOM
      1 CA        -82.8043   29.5983  -77.2305 C.3       0 UNK        -0.1998 
      2 C         -82.0071   28.9365  -76.1167 C.2       0 UNK         0.4909 
      3 O         -80.9791   28.3190  -76.3878 O.2       0 UNK        -0.5240 
      4 N         -82.4730   29.0668  -74.8678 N.am      1 UNK        -0.4739 
      5 CA        -81.8783   28.4716  -73.6681 C.3       1 UNK         0.0864 
      6 C6        -82.4884   29.1156  -72.3949 C.3       11 UNK        -0.0881 
      7 S7        -81.8340   28.4813  -70.8090 S.3       11 UNK        -0.2682 
      8 C8        -80.7551   29.8338  -70.2435 C.3       11 UNK         0.0289 
      9 C9        -79.3213   29.6259  -70.7032 C.ar      11 UNK        -0.0687 
     10 C10       -78.8559   30.2233  -71.8768 C.ar      11 UNK        -0.0823 
     11 C11       -77.5380   30.0185  -72.2947 C.ar      11 UNK        -0.0830 
     12 C12       -76.6822   29.2261  -71.5251 C.ar      11 UNK        -0.1021 
     13 C13       -77.1279   28.6357  -70.3364 C.ar      11 UNK        -0.0753 
     14 C14       -78.4543   28.8363  -69.9413 C.ar      11 UNK        -0.0933 
     15 C15       -76.2259   27.7730  -69.4515 C.3       11 UNK         0.0166 
     16 S16       -74.4302   28.0202  -69.6818 S.3       11 UNK        -0.2615 
     17 C17       -74.0632   26.7813  -70.9679 C.3       11 UNK        -0.0865 
     18 CA        -72.8102   27.1546  -71.8123 C.3       10 UNK         0.0862 
     19 C         -71.8840   25.9234  -72.0250 C.2       10 UNK         0.5551 
     20 N         -71.8835   25.2723  -73.1829 N.am      10 UNK        -0.7319 
     21 O         -71.1426   25.5555  -71.1175 O.2       10 UNK        -0.5018 
     22 N         -73.1700   27.8074  -73.0811 N.am      10 UNK        -0.4509 
     23 C         -73.0096   29.1070  -73.3586 C.2       10 UNK         0.4899 
     24 O         -72.7180   29.9575  -72.5170 O.2       10 UNK        -0.4839 
     25 CA        -73.1889   29.5210  -74.8382 C.3       9 UNK         0.0222 
     26 CB        -72.5794   30.9054  -75.1483 C.3       9 UNK        -0.1966 
     27 N         -72.7019   28.5100  -75.7934 N.am      9 UNK        -0.4218 
     28 C         -71.4452   28.0405  -75.8682 C.2       9 UNK         0.5020 
     29 O         -70.5375   28.4228  -75.1274 O.2       9 UNK        -0.5274 
     30 CA        -71.1270   26.9798  -76.9358 C.3       8 UNK         0.0270 
     31 CB        -69.9380   26.0813  -76.5222 C.3       8 UNK        -0.1976 
     32 N         -72.2760   26.1429  -77.3051 N.am      8 UNK        -0.4313 
     33 C         -72.3464   25.4879  -78.4746 C.2       8 UNK         0.5041 
     34 O         -71.5446   25.6458  -79.3974 O.2       8 UNK        -0.5577 
     35 CA        -73.4642   24.4476  -78.6404 C.3       7 UNK         0.0284 
     36 CB        -73.2367   23.2500  -77.7024 C.3       7 UNK        -0.1958 
     37 N         -74.8017   24.9990  -78.4371 N.am      7 UNK        -0.4454 
     38 C         -75.3950   25.8868  -79.2474 C.2       7 UNK         0.5089 
     39 O         -74.8882   26.3244  -80.2809 O.2       7 UNK        -0.5125 
     40 CA        -76.7924   26.3809  -78.8300 C.3       6 UNK         0.0408 
     41 CB        -77.8811   25.4112  -79.3154 C.3       6 UNK        -0.1791 
     42 N         -76.9308   26.5830  -77.3865 N.am      6 UNK        -0.4762 
     43 C         -76.1974   27.4368  -76.6569 C.2       6 UNK         0.5007 
     44 O         -75.3029   28.1514  -77.1112 O.2       6 UNK        -0.5032 
     45 CA        -76.4643   27.4247  -75.1425 C.3       5 UNK         0.0783 
     46 C46       -77.7971   28.1192  -74.7742 C.3       11 UNK        -0.0857 
     47 S47       -77.8186   29.9232  -75.0713 S.3       11 UNK        -0.2512 
     48 C48       -77.0329   30.6357  -73.5884 C.3       11 UNK         0.0225 
     49 N         -76.3992   26.0517  -74.6395 N.am      5 UNK        -0.4615 
     50 C         -75.2829   25.3119  -74.5803 C.2       4 UNK         0.5053 
     51 O         -74.1604   25.7444  -74.8613 O.2       4 UNK        -0.5105 
     52 CA        -75.4424   23.8430  -74.1464 C.3       4 UNK         0.0263 
     53 CB        -75.3013   23.7149  -72.6222 C.3       4 UNK        -0.1981 
     54 N         -76.7171   23.2501  -74.5628 N.am      4 UNK        -0.4224 
     55 C         -77.0672   23.0179  -75.8363 C.2       3 UNK         0.4895 
     56 O         -76.3326   23.2418  -76.7957 O.2       3 UNK        -0.5091 
     57 CA        -78.4975   22.5066  -76.0911 C.3       3 UNK         0.0250 
     58 CB        -78.5406   20.9722  -76.0180 C.3       3 UNK        -0.1996 
     59 N         -79.5119   23.0726  -75.1910 N.am      3 UNK        -0.4254 
     60 C         -79.7371   24.3829  -75.0197 C.2       2 UNK         0.5004 
     61 O         -79.0849   25.2616  -75.5898 O.2       2 UNK        -0.5226 
     62 CA        -80.8310   24.7748  -74.0166 C.3       2 UNK         0.0269 
     63 CB        -80.5151   24.2564  -72.5996 C.3       2 UNK        -0.1926 
     64 N         -80.9353   26.2306  -73.9775 N.am      2 UNK        -0.4687 
     65 C         -82.0368   26.9347  -73.7026 C.2       1 UNK         0.5165 
     66 O         -83.1406   26.4269  -73.4894 O.2       1 UNK        -0.5079 
     67 H67       -83.6848   30.1165  -76.8511 H         1 UNK         0.0900 
     68 H68       -82.1830   30.3242  -77.7546 H         1 UNK         0.0900 
     69 H69       -83.1345   28.8498  -77.9502 H         1 UNK         0.0900 
     70 H70       -83.3389   29.5654  -74.7204 H         1 UNK         0.2959 
     71 H71       -80.8112   28.7066  -73.6757 H         1 UNK         0.1079 
     72 H72       -82.3509   30.1970  -72.4321 H         1 UNK         0.0837 
     73 H73       -83.5691   28.9616  -72.3819 H         1 UNK         0.0837 
     74 H74       -81.1356   30.7998  -70.5780 H         1 UNK         0.0685 
     75 H75       -80.7842   29.8651  -69.1532 H         1 UNK         0.0685 
     76 H76       -79.5200   30.8335  -72.4738 H         1 UNK         0.1434 
     77 H77       -75.6666   29.0751  -71.8599 H         1 UNK         0.1329 
     78 H78       -78.8167   28.3766  -69.0316 H         1 UNK         0.1335 
     79 H79       -76.4482   27.9919  -68.4059 H         1 UNK         0.0680 
     80 H80       -76.4748   26.7216  -69.6017 H         1 UNK         0.0680 
     81 H81       -73.9350   25.8313  -70.4445 H         1 UNK         0.1032 
     82 H82       -74.9345   26.6440  -71.6104 H         1 UNK         0.1032 
     83 H83       -72.1927   27.8438  -71.2326 H         1 UNK         0.0461 
     84 H84       -71.2637   24.4859  -73.2913 H         1 UNK         0.3453 
     85 H85       -72.5476   25.4925  -73.9134 H         1 UNK         0.3453 
     86 H86       -73.4052   27.1779  -73.8403 H         1 UNK         0.2984 
     87 H87       -74.2584   29.6158  -75.0111 H         1 UNK         0.0554 
     88 H88       -72.7307   31.1807  -76.1920 H         1 UNK         0.0847 
     89 H89       -71.5084   30.9332  -74.9454 H         1 UNK         0.0847 
     90 H90       -73.0441   31.6826  -74.5404 H         1 UNK         0.0847 
     91 H91       -73.3957   28.1780  -76.4577 H         1 UNK         0.3141 
     92 H92       -70.8237   27.5529  -77.8146 H         1 UNK         0.0743 
     93 H93       -70.1705   25.4999  -75.6295 H         1 UNK         0.0784 
     94 H94       -69.6634   25.3836  -77.3131 H         1 UNK         0.0784 
     95 H95       -69.0477   26.6729  -76.3051 H         1 UNK         0.0784 
     96 H96       -72.9726   25.9660  -76.5880 H         1 UNK         0.3213 
     97 H97       -73.4157   24.0763  -79.6665 H         1 UNK         0.0855 
     98 H98       -73.3334   23.5300  -76.6535 H         1 UNK         0.0814 
     99 H99       -72.2383   22.8317  -77.8376 H         1 UNK         0.0814 
    100 H100      -73.9502   22.4504  -77.9019 H         1 UNK         0.0814 
    101 H101      -75.3423   24.6124  -77.6675 H         1 UNK         0.3105 
    102 H102      -76.9585   27.3470  -79.3108 H         1 UNK         0.0547 
    103 H103      -78.8785   25.7844  -79.0818 H         1 UNK         0.0837 
    104 H104      -77.8296   25.2774  -80.3967 H         1 UNK         0.0837 
    105 H105      -77.7771   24.4260  -78.8601 H         1 UNK         0.0837 
    106 H106      -77.6387   26.0331  -76.9094 H         1 UNK         0.3020 
    107 H107      -75.6643   27.9731  -74.6507 H         1 UNK         0.1245 
    108 H108      -78.0576   27.9116  -73.7368 H         1 UNK         0.0781 
    109 H109      -78.6156   27.7051  -75.3607 H         1 UNK         0.0781 
    110 H110      -77.2238   31.7096  -73.5719 H         1 UNK         0.0836 
    111 H111      -75.9518   30.5267  -73.6708 H         1 UNK         0.0836 
    112 H112      -77.2895   25.5962  -74.4871 H         1 UNK         0.3022 
    113 H113      -74.6377   23.2712  -74.6124 H         1 UNK         0.0747 
    114 H114      -75.3831   22.6758  -72.3030 H         1 UNK         0.0793 
    115 H115      -74.3271   24.0715  -72.2892 H         1 UNK         0.0793 
    116 H116      -76.0624   24.2894  -72.0923 H         1 UNK         0.0793 
    117 H117      -77.3819   23.0303  -73.8356 H         1 UNK         0.3047 
    118 H118      -78.7672   22.8055  -77.1061 H         1 UNK         0.0822 
    119 H119      -78.3208   20.6077  -75.0137 H         1 UNK         0.0807 
    120 H120      -77.8073   20.5288  -76.6934 H         1 UNK         0.0807 
    121 H121      -79.5183   20.5877  -76.3092 H         1 UNK         0.0807 
    122 H122      -80.0840   22.4108  -74.6861 H         1 UNK         0.2946 
    123 H123      -81.7736   24.3487  -74.3680 H         1 UNK         0.1144 
    124 H124      -80.4739   23.1672  -72.5692 H         1 UNK         0.0793 
    125 H125      -79.5575   24.6331  -72.2374 H         1 UNK         0.0793 
    126 H126      -81.2812   24.5638  -71.8872 H         1 UNK         0.0793 
    127 H127      -80.1079   26.7131  -74.3032 H         1 UNK         0.2896 
@<TRIPOS>BOND
     1    1    2 1    
     2    1   67 1    
     3    1   68 1    
     4    1   69 1    
     5    2    3 2    
     6    2    4 am   BACKBONE|DICT|INTERRES
     7    4    5 1    
     8    4   70 1    
     9    5    6 1    
    10    5   65 1    
    11    5   71 1    
    12    6    7 1    
    13    6   72 1    
    14    6   73 1    
    15    7    8 1    
    16    8    9 1    
    17    8   74 1    
    18    8   75 1    
    19    9   10 ar   
    20    9   14 ar   
    21   10   11 ar   
    22   10   76 1    
    23   11   12 ar   
    24   11   48 1    
    25   12   13 ar   
    26   12   77 1    
    27   13   14 ar   
    28   13   15 1    
    29   14   78 1    
    30   15   16 1    
    31   15   79 1    
    32   15   80 1    
    33   16   17 1    
    34   17   18 1    
    35   17   81 1    
    36   17   82 1    
    37   18   19 1    
    38   18   22 1    
    39   18   83 1    
    40   19   20 am   BACKBONE|DICT|INTERRES
    41   19   21 2    
    42   20   84 1    
    43   20   85 1    
    44   22   23 am   BACKBONE|DICT|INTERRES
    45   22   86 1    
    46   23   24 2    
    47   23   25 1    
    48   25   26 1    
    49   25   27 1    
    50   25   87 1    
    51   26   88 1    
    52   26   89 1    
    53   26   90 1    
    54   27   28 am   BACKBONE|DICT|INTERRES
    55   27   91 1    
    56   28   29 2    
    57   28   30 1    
    58   30   31 1    
    59   30   32 1    
    60   30   92 1    
    61   31   93 1    
    62   31   94 1    
    63   31   95 1    
    64   32   33 am   BACKBONE|DICT|INTERRES
    65   32   96 1    
    66   33   34 2    
    67   33   35 1    
    68   35   36 1    
    69   35   37 1    
    70   35   97 1    
    71   36   98 1    
    72   36   99 1    
    73   36  100 1    
    74   37   38 am   BACKBONE|DICT|INTERRES
    75   37  101 1    
    76   38   39 2    
    77   38   40 1    
    78   40   41 1    
    79   40   42 1    
    80   40  102 1    
    81   41  103 1    
    82   41  104 1    
    83   41  105 1    
    84   42   43 am   BACKBONE|DICT|INTERRES
    85   42  106 1    
    86   43   44 2    
    87   43   45 1    
    88   45   46 1    
    89   45   49 1    
    90   45  107 1    
    91   46   47 1    
    92   46  108 1    
    93   46  109 1    
    94   47   48 1    
    95   48  110 1    
    96   48  111 1    
    97   49   50 am   BACKBONE|DICT|INTERRES
    98   49  112 1    
    99   50   51 2    
   100   50   52 1    
   101   52   53 1    
   102   52   54 1    
   103   52  113 1    
   104   53  114 1    
   105   53  115 1    
   106   53  116 1    
   107   54   55 am   BACKBONE|DICT|INTERRES
   108   54  117 1    
   109   55   56 2    
   110   55   57 1    
   111   57   58 1    
   112   57   59 1    
   113   57  118 1    
   114   58  119 1    
   115   58  120 1    
   116   58  121 1    
   117   59   60 am   BACKBONE|DICT|INTERRES
   118   59  122 1    
   119   60   61 2    
   120   60   62 1    
   121   62   63 1    
   122   62   64 1    
   123   62  123 1    
   124   63  124 1    
   125   63  125 1    
   126   63  126 1    
   127   64   65 am   BACKBONE|DICT|INTERRES
   128   64  127 1    
   129   65   66 2    
@<TRIPOS>SUBSTRUCTURE
     1 UNK         1 GROUP             0       ****    0 ROOT    
