@<TRIPOS>MOLECULE
3R135
127   129    1
SMALL
USER_CHARGES


@<TRIPOS>ATOM
      1 CA        -78.5693   28.6493  -74.7294 C.3       0 UNK        -0.1998 
      2 C         -79.7400   29.6202  -74.8456 C.2       0 UNK         0.4909 
      3 O         -79.6495   30.5916  -75.5940 O.2       0 UNK        -0.5240 
      4 N         -80.8501   29.4132  -74.1265 N.am      1 UNK        -0.4739 
      5 CA        -81.1291   28.2618  -73.2605 C.3       1 UNK         0.0864 
      6 C6        -82.2003   28.5842  -72.1896 C.3       11 UNK        -0.0881 
      7 S7        -81.8057   30.0755  -71.2131 S.3       11 UNK        -0.2682 
      8 C8        -80.8604   29.3862  -69.8177 C.3       11 UNK         0.0289 
      9 C9        -79.4597   28.9321  -70.2140 C.ar      11 UNK        -0.0687 
     10 C10       -79.0730   27.6008  -70.0302 C.ar      11 UNK        -0.0823 
     11 C11       -77.7668   27.1896  -70.3159 C.ar      11 UNK        -0.0830 
     12 C12       -76.8450   28.1292  -70.7946 C.ar      11 UNK        -0.1021 
     13 C13       -77.2213   29.4585  -71.0017 C.ar      11 UNK        -0.0753 
     14 C14       -78.5308   29.8536  -70.7096 C.ar      11 UNK        -0.0933 
     15 C15       -76.1985   30.4755  -71.4900 C.3       11 UNK         0.0166 
     16 S16       -75.6950   30.1746  -73.2144 S.3       11 UNK        -0.2615 
     17 C17       -74.7605   31.7062  -73.5647 C.3       11 UNK        -0.0865 
     18 CA        -73.2434   31.5035  -73.8218 C.3       10 UNK         0.0862 
     19 C         -72.4463   31.0702  -72.5550 C.2       10 UNK         0.5551 
     20 N         -71.5139   30.1277  -72.6399 N.am      10 UNK        -0.7319 
     21 O         -72.6611   31.6161  -71.4755 O.2       10 UNK        -0.5018 
     22 N         -73.0039   30.6632  -75.0052 N.am      10 UNK        -0.4509 
     23 C         -72.0448   30.8750  -75.9140 C.2       10 UNK         0.4899 
     24 O         -71.2907   31.8497  -75.9023 O.2       10 UNK        -0.4839 
     25 CA        -71.9026   29.7992  -77.0087 C.3       9 UNK         0.0222 
     26 CB        -70.6719   30.0211  -77.9133 C.3       9 UNK        -0.1966 
     27 N         -71.9046   28.4294  -76.4778 N.am      9 UNK        -0.4218 
     28 C         -71.0710   27.9117  -75.5582 C.2       9 UNK         0.5020 
     29 O         -70.2065   28.5699  -74.9779 O.2       9 UNK        -0.5274 
     30 CA        -71.2245   26.4226  -75.1885 C.3       8 UNK         0.0270 
     31 CB        -71.6005   26.2749  -73.7036 C.3       8 UNK        -0.1976 
     32 N         -72.2102   25.7166  -76.0122 N.am      8 UNK        -0.4313 
     33 C         -71.9813   25.2649  -77.2560 C.2       8 UNK         0.5041 
     34 O         -70.8780   25.3137  -77.8007 O.2       8 UNK        -0.5577 
     35 CA        -73.1751   24.6904  -78.0489 C.3       7 UNK         0.0284 
     36 CB        -73.1504   23.1540  -78.0182 C.3       7 UNK        -0.1958 
     37 N         -74.4861   25.1539  -77.5866 N.am      7 UNK        -0.4454 
     38 C         -74.8911   26.4307  -77.5358 C.2       7 UNK         0.5089 
     39 O         -74.2290   27.3747  -77.9666 O.2       7 UNK        -0.5125 
     40 CA        -76.2179   26.7129  -76.8081 C.3       6 UNK         0.0408 
     41 CB        -77.3650   26.8381  -77.8229 C.3       6 UNK        -0.1791 
     42 N         -76.5719   25.7182  -75.7859 N.am      6 UNK        -0.4762 
     43 C         -75.8093   25.3544  -74.7413 C.2       6 UNK         0.5007 
     44 O         -74.6968   25.8293  -74.5188 O.2       6 UNK        -0.5032 
     45 CA        -76.3418   24.2232  -73.8426 C.3       5 UNK         0.0783 
     46 C46       -77.1852   24.7663  -72.6608 C.3       11 UNK        -0.0857 
     47 S47       -76.1435   25.0590  -71.1970 S.3       11 UNK        -0.2512 
     48 C48       -77.3564   25.7478  -70.0237 C.3       11 UNK         0.0225 
     49 N         -77.0766   23.2324  -74.6317 N.am      5 UNK        -0.4615 
     50 C         -76.5083   22.2073  -75.2818 C.2       4 UNK         0.5053 
     51 O         -75.3021   21.9659  -75.2525 O.2       4 UNK        -0.5105 
     52 CA        -77.4334   21.2929  -76.1057 C.3       4 UNK         0.0263 
     53 CB        -77.8612   20.0746  -75.2717 C.3       4 UNK        -0.1981 
     54 N         -78.6271   21.9810  -76.6013 N.am      4 UNK        -0.4224 
     55 C         -78.6198   22.9091  -77.5682 C.2       3 UNK         0.4895 
     56 O         -77.6153   23.2275  -78.2047 O.2       3 UNK        -0.5091 
     57 CA        -79.9506   23.6363  -77.8383 C.3       3 UNK         0.0250 
     58 CB        -80.7550   22.9001  -78.9214 C.3       3 UNK        -0.1996 
     59 N         -80.7893   23.8219  -76.6445 N.am      3 UNK        -0.4254 
     60 C         -80.4154   24.5000  -75.5506 C.2       2 UNK         0.5004 
     61 O         -79.2931   24.9882  -75.4028 O.2       2 UNK        -0.5226 
     62 CA        -81.4308   24.5988  -74.4011 C.3       2 UNK         0.0269 
     63 CB        -81.2704   23.4028  -73.4483 C.3       2 UNK        -0.1926 
     64 N         -81.2393   25.8395  -73.6443 N.am      2 UNK        -0.4687 
     65 C         -81.5602   27.0521  -74.1131 C.2       1 UNK         0.5165 
     66 O         -82.1801   27.2318  -75.1651 O.2       1 UNK        -0.5079 
     67 H67       -78.2179   28.5772  -73.7009 H         1 UNK         0.0900 
     68 H68       -77.7343   28.9986  -75.3345 H         1 UNK         0.0900 
     69 H69       -78.8445   27.6549  -75.0763 H         1 UNK         0.0900 
     70 H70       -81.6148   30.0651  -74.2227 H         1 UNK         0.2959 
     71 H71       -80.2128   27.9910  -72.7354 H         1 UNK         0.1079 
     72 H72       -83.1716   28.7498  -72.6604 H         1 UNK         0.0837 
     73 H73       -82.3355   27.7394  -71.5113 H         1 UNK         0.0837 
     74 H74       -80.7697   30.1550  -69.0492 H         1 UNK         0.0685 
     75 H75       -81.4279   28.5716  -69.3651 H         1 UNK         0.0685 
     76 H76       -79.7827   26.8889  -69.6306 H         1 UNK         0.1434 
     77 H77       -75.8246   27.8353  -70.9988 H         1 UNK         0.1329 
     78 H78       -78.8266   30.8848  -70.8470 H         1 UNK         0.1335 
     79 H79       -76.6058   31.4843  -71.4060 H         1 UNK         0.0680 
     80 H80       -75.3171   30.4426  -70.8477 H         1 UNK         0.0680 
     81 H81       -74.9091   32.4289  -72.7605 H         1 UNK         0.1032 
     82 H82       -75.2118   32.1692  -74.4435 H         1 UNK         0.1032 
     83 H83       -72.8571   32.5003  -74.0421 H         1 UNK         0.0461 
     84 H84       -71.0047   29.8696  -71.8102 H         1 UNK         0.3453 
     85 H85       -71.2706   29.7091  -73.5285 H         1 UNK         0.3453 
     86 H86       -73.5659   29.8266  -75.0678 H         1 UNK         0.2984 
     87 H87       -72.7909   29.8841  -77.6363 H         1 UNK         0.0554 
     88 H88       -70.6183   29.2693  -78.7007 H         1 UNK         0.0847 
     89 H89       -69.7408   29.9801  -77.3470 H         1 UNK         0.0847 
     90 H90       -70.7140   30.9961  -78.4004 H         1 UNK         0.0847 
     91 H91       -72.6079   27.8210  -76.8862 H         1 UNK         0.3141 
     92 H92       -70.2504   25.9516  -75.3354 H         1 UNK         0.0743 
     93 H93       -71.7523   25.2305  -73.4307 H         1 UNK         0.0784 
     94 H94       -70.8101   26.6655  -73.0614 H         1 UNK         0.0784 
     95 H95       -72.5115   26.8227  -73.4597 H         1 UNK         0.0784 
     96 H96       -73.1476   25.6498  -75.6205 H         1 UNK         0.3213 
     97 H97       -73.0611   25.0165  -79.0849 H         1 UNK         0.0855 
     98 H98       -73.2692   22.7697  -77.0042 H         1 UNK         0.0814 
     99 H99       -72.2042   22.7709  -78.4030 H         1 UNK         0.0814 
    100 H100      -73.9446   22.7299  -78.6331 H         1 UNK         0.0814 
    101 H101      -75.1117   24.4531  -77.2141 H         1 UNK         0.3105 
    102 H102      -76.1006   27.6692  -76.2968 H         1 UNK         0.0547 
    103 H103      -77.1684   27.6422  -78.5332 H         1 UNK         0.0837 
    104 H104      -77.4923   25.9217  -78.3992 H         1 UNK         0.0837 
    105 H105      -78.3144   27.0610  -77.3373 H         1 UNK         0.0837 
    106 H106      -77.5059   25.3190  -75.8466 H         1 UNK         0.3020 
    107 H107      -75.4630   23.7185  -73.4328 H         1 UNK         0.1245 
    108 H108      -77.9419   24.0374  -72.3670 H         1 UNK         0.0781 
    109 H109      -77.7308   25.6755  -72.9242 H         1 UNK         0.0781 
    110 H110      -76.9223   25.7154  -69.0236 H         1 UNK         0.0836 
    111 H111      -78.2300   25.0943  -69.9997 H         1 UNK         0.0836 
    112 H112      -78.0606   23.4208  -74.7717 H         1 UNK         0.3022 
    113 H113      -76.8624   20.9359  -76.9658 H         1 UNK         0.0747 
    114 H114      -78.4580   19.3790  -75.8620 H         1 UNK         0.0793 
    115 H115      -76.9908   19.5252  -74.9099 H         1 UNK         0.0793 
    116 H116      -78.4478   20.3661  -74.3994 H         1 UNK         0.0793 
    117 H117      -79.5021   21.7711  -76.1438 H         1 UNK         0.3047 
    118 H118      -79.7021   24.6301  -78.2167 H         1 UNK         0.0822 
    119 H119      -81.0673   21.9086  -78.5909 H         1 UNK         0.0807 
    120 H120      -80.1611   22.7695  -79.8274 H         1 UNK         0.0807 
    121 H121      -81.6485   23.4586  -79.2014 H         1 UNK         0.0807 
    122 H122      -81.7213   23.4339  -76.6845 H         1 UNK         0.2946 
    123 H123      -82.4411   24.5920  -74.8174 H         1 UNK         0.1144 
    124 H124      -80.2715   23.3606  -73.0129 H         1 UNK         0.0793 
    125 H125      -81.4389   22.4595  -73.9695 H         1 UNK         0.0793 
    126 H126      -81.9897   23.4494  -72.6304 H         1 UNK         0.0793 
    127 H127      -80.7226   25.7625  -72.7808 H         1 UNK         0.2896 
@<TRIPOS>BOND
     1    1    2 1    
     2    1   67 1    
     3    1   68 1    
     4    1   69 1    
     5    2    3 2    
     6    2    4 am   BACKBONE|DICT|INTERRES
     7    4    5 1    
     8    4   70 1    
     9    5    6 1    
    10    5   65 1    
    11    5   71 1    
    12    6    7 1    
    13    6   72 1    
    14    6   73 1    
    15    7    8 1    
    16    8    9 1    
    17    8   74 1    
    18    8   75 1    
    19    9   10 ar   
    20    9   14 ar   
    21   10   11 ar   
    22   10   76 1    
    23   11   12 ar   
    24   11   48 1    
    25   12   13 ar   
    26   12   77 1    
    27   13   14 ar   
    28   13   15 1    
    29   14   78 1    
    30   15   16 1    
    31   15   79 1    
    32   15   80 1    
    33   16   17 1    
    34   17   18 1    
    35   17   81 1    
    36   17   82 1    
    37   18   19 1    
    38   18   22 1    
    39   18   83 1    
    40   19   20 am   BACKBONE|DICT|INTERRES
    41   19   21 2    
    42   20   84 1    
    43   20   85 1    
    44   22   23 am   BACKBONE|DICT|INTERRES
    45   22   86 1    
    46   23   24 2    
    47   23   25 1    
    48   25   26 1    
    49   25   27 1    
    50   25   87 1    
    51   26   88 1    
    52   26   89 1    
    53   26   90 1    
    54   27   28 am   BACKBONE|DICT|INTERRES
    55   27   91 1    
    56   28   29 2    
    57   28   30 1    
    58   30   31 1    
    59   30   32 1    
    60   30   92 1    
    61   31   93 1    
    62   31   94 1    
    63   31   95 1    
    64   32   33 am   BACKBONE|DICT|INTERRES
    65   32   96 1    
    66   33   34 2    
    67   33   35 1    
    68   35   36 1    
    69   35   37 1    
    70   35   97 1    
    71   36   98 1    
    72   36   99 1    
    73   36  100 1    
    74   37   38 am   BACKBONE|DICT|INTERRES
    75   37  101 1    
    76   38   39 2    
    77   38   40 1    
    78   40   41 1    
    79   40   42 1    
    80   40  102 1    
    81   41  103 1    
    82   41  104 1    
    83   41  105 1    
    84   42   43 am   BACKBONE|DICT|INTERRES
    85   42  106 1    
    86   43   44 2    
    87   43   45 1    
    88   45   46 1    
    89   45   49 1    
    90   45  107 1    
    91   46   47 1    
    92   46  108 1    
    93   46  109 1    
    94   47   48 1    
    95   48  110 1    
    96   48  111 1    
    97   49   50 am   BACKBONE|DICT|INTERRES
    98   49  112 1    
    99   50   51 2    
   100   50   52 1    
   101   52   53 1    
   102   52   54 1    
   103   52  113 1    
   104   53  114 1    
   105   53  115 1    
   106   53  116 1    
   107   54   55 am   BACKBONE|DICT|INTERRES
   108   54  117 1    
   109   55   56 2    
   110   55   57 1    
   111   57   58 1    
   112   57   59 1    
   113   57  118 1    
   114   58  119 1    
   115   58  120 1    
   116   58  121 1    
   117   59   60 am   BACKBONE|DICT|INTERRES
   118   59  122 1    
   119   60   61 2    
   120   60   62 1    
   121   62   63 1    
   122   62   64 1    
   123   62  123 1    
   124   63  124 1    
   125   63  125 1    
   126   63  126 1    
   127   64   65 am   BACKBONE|DICT|INTERRES
   128   64  127 1    
   129   65   66 2    
@<TRIPOS>SUBSTRUCTURE
     1 UNK         1 GROUP             0       ****    0 ROOT    
