@<TRIPOS>MOLECULE
3R135
127   129    1
SMALL
USER_CHARGES


@<TRIPOS>ATOM
      1 CA        -78.9073   31.1951  -75.4609 C.3       0 UNK        -0.1998 
      2 C         -79.1621   29.7986  -74.9146 C.2       0 UNK         0.4909 
      3 O         -78.3407   28.9059  -75.1112 O.2       0 UNK        -0.5240 
      4 N         -80.2903   29.6049  -74.2224 N.am      1 UNK        -0.4739 
      5 CA        -80.7177   28.3149  -73.6680 C.3       1 UNK         0.0864 
      6 C6        -81.8260   28.4673  -72.5823 C.3       11 UNK        -0.0881 
      7 S7        -81.6906   29.9543  -71.5175 S.3       11 UNK        -0.2682 
      8 C8        -80.7132   29.3830  -70.0869 C.3       11 UNK         0.0289 
      9 C9        -79.2699   29.0567  -70.4495 C.ar      11 UNK        -0.0687 
     10 C10       -78.7390   27.8038  -70.1311 C.ar      11 UNK        -0.0823 
     11 C11       -77.4392   27.4686  -70.5172 C.ar      11 UNK        -0.0830 
     12 C12       -76.6609   28.4010  -71.2085 C.ar      11 UNK        -0.1021 
     13 C13       -77.1744   29.6597  -71.5263 C.ar      11 UNK        -0.0753 
     14 C14       -78.4722   29.9900  -71.1234 C.ar      11 UNK        -0.0933 
     15 C15       -76.3727   30.6184  -72.3958 C.3       11 UNK         0.0166 
     16 S16       -75.2035   31.6460  -71.4513 S.3       11 UNK        -0.2615 
     17 C17       -73.7610   30.5482  -71.2177 C.3       11 UNK        -0.0865 
     18 CA        -72.7061   30.6826  -72.3479 C.3       10 UNK         0.0862 
     19 C         -71.3748   29.9991  -71.9415 C.2       10 UNK         0.5551 
     20 N         -70.3758   30.7705  -71.5363 N.am      10 UNK        -0.7319 
     21 O         -71.2601   28.7750  -71.9477 O.2       10 UNK        -0.5018 
     22 N         -73.1923   30.1242  -73.6166 N.am      10 UNK        -0.4509 
     23 C         -72.7753   30.5108  -74.8273 C.2       10 UNK         0.4899 
     24 O         -72.0121   31.4587  -75.0225 O.2       10 UNK        -0.4839 
     25 CA        -73.3043   29.6786  -76.0108 C.3       9 UNK         0.0222 
     26 CB        -72.8093   30.1835  -77.3825 C.3       9 UNK        -0.1966 
     27 N         -73.0259   28.2468  -75.8501 N.am      9 UNK        -0.4218 
     28 C         -71.8279   27.6496  -75.7435 C.2       9 UNK         0.5020 
     29 O         -70.7481   28.2416  -75.7746 O.2       9 UNK        -0.5274 
     30 CA        -71.8346   26.1180  -75.5893 C.3       8 UNK         0.0270 
     31 CB        -72.1229   25.7204  -74.1320 C.3       8 UNK        -0.1976 
     32 N         -72.7900   25.4570  -76.4839 N.am      8 UNK        -0.4313 
     33 C         -72.6756   25.4096  -77.8203 C.2       8 UNK         0.5041 
     34 O         -71.7103   25.8551  -78.4423 O.2       8 UNK        -0.5577 
     35 CA        -73.8394   24.7716  -78.6016 C.3       7 UNK         0.0284 
     36 CB        -73.7332   23.2383  -78.5976 C.3       7 UNK        -0.1958 
     37 N         -75.1468   25.1814  -78.0857 N.am      7 UNK        -0.4454 
     38 C         -75.6331   26.4292  -78.1594 C.2       7 UNK         0.5089 
     39 O         -75.0874   27.3454  -78.7740 O.2       7 UNK        -0.5125 
     40 CA        -76.9274   26.7142  -77.3814 C.3       6 UNK         0.0408 
     41 CB        -78.1711   26.4594  -78.2468 C.3       6 UNK        -0.1791 
     42 N         -77.0134   25.9333  -76.1461 N.am      6 UNK        -0.4762 
     43 C         -76.2522   26.1516  -75.0639 C.2       6 UNK         0.5007 
     44 O         -75.3976   27.0342  -74.9895 O.2       6 UNK        -0.5032 
     45 CA        -76.4487   25.1944  -73.8748 C.3       5 UNK         0.0783 
     46 C46       -77.6467   25.6564  -73.0240 C.3       11 UNK        -0.0857 
     47 S47       -77.7204   24.8453  -71.3895 S.3       11 UNK        -0.2512 
     48 C48       -76.9092   26.0605  -70.2937 C.3       11 UNK         0.0225 
     49 N         -76.5929   23.8065  -74.3184 N.am      5 UNK        -0.4615 
     50 C         -75.6178   23.1021  -74.9071 C.2       4 UNK         0.5053 
     51 O         -74.4804   23.5359  -75.0869 O.2       4 UNK        -0.5105 
     52 CA        -75.9793   21.7013  -75.4304 C.3       4 UNK         0.0263 
     53 CB        -75.7208   20.6425  -74.3476 C.3       4 UNK        -0.1981 
     54 N         -77.3620   21.5878  -75.9049 N.am      4 UNK        -0.4224 
     55 C         -77.9025   22.3137  -76.8944 C.2       3 UNK         0.4895 
     56 O         -77.2791   23.1630  -77.5332 O.2       3 UNK        -0.5091 
     57 CA        -79.3926   22.0829  -77.2158 C.3       3 UNK         0.0250 
     58 CB        -80.0084   20.8507  -76.5127 C.3       3 UNK        -0.1996 
     59 N         -80.2092   23.2765  -76.9541 N.am      3 UNK        -0.4254 
     60 C         -80.3132   23.9424  -75.7942 C.2       2 UNK         0.5004 
     61 O         -79.6905   23.6498  -74.7714 O.2       2 UNK        -0.5226 
     62 CA        -81.3081   25.1096  -75.7663 C.3       2 UNK         0.0269 
     63 CB        -82.7348   24.5984  -75.4945 C.3       2 UNK        -0.1926 
     64 N         -80.9317   26.0842  -74.7376 N.am      2 UNK        -0.4687 
     65 C         -81.1954   27.3952  -74.8187 C.2       1 UNK         0.5165 
     66 O         -81.8268   27.8915  -75.7567 O.2       1 UNK        -0.5079 
     67 H67       -79.0363   31.2010  -76.5427 H         1 UNK         0.0900 
     68 H68       -77.8874   31.5074  -75.2394 H         1 UNK         0.0900 
     69 H69       -79.5877   31.9295  -75.0302 H         1 UNK         0.0900 
     70 H70       -80.9394   30.3666  -74.0892 H         1 UNK         0.2959 
     71 H71       -79.8446   27.8585  -73.1969 H         1 UNK         0.1079 
     72 H72       -81.8571   27.5763  -71.9528 H         1 UNK         0.0837 
     73 H73       -82.8108   28.5290  -73.0508 H         1 UNK         0.0837 
     74 H74       -81.2124   28.5227  -69.6384 H         1 UNK         0.0685 
     75 H75       -80.7117   30.1677  -69.3294 H         1 UNK         0.0685 
     76 H76       -79.3498   27.0688  -69.6244 H         1 UNK         0.1434 
     77 H77       -75.6813   28.1143  -71.5615 H         1 UNK         0.1329 
     78 H78       -78.8845   30.9555  -71.3827 H         1 UNK         0.1335 
     79 H79       -77.0555   31.2886  -72.9189 H         1 UNK         0.0680 
     80 H80       -75.8528   30.0646  -73.1774 H         1 UNK         0.0680 
     81 H81       -73.3166   30.8303  -70.2610 H         1 UNK         0.1032 
     82 H82       -74.0734   29.5133  -71.0932 H         1 UNK         0.1032 
     83 H83       -72.5114   31.7480  -72.4910 H         1 UNK         0.0461 
     84 H84       -69.5090   30.3409  -71.2527 H         1 UNK         0.3453 
     85 H85       -70.4657   31.7747  -71.5206 H         1 UNK         0.3453 
     86 H86       -73.7677   29.2983  -73.5495 H         1 UNK         0.2984 
     87 H87       -74.3909   29.7786  -75.9986 H         1 UNK         0.0554 
     88 H88       -73.1049   31.2204  -77.5461 H         1 UNK         0.0847 
     89 H89       -73.2323   29.5930  -78.1956 H         1 UNK         0.0847 
     90 H90       -71.7230   30.1381  -77.4657 H         1 UNK         0.0847 
     91 H91       -73.8540   27.6650  -75.7285 H         1 UNK         0.3141 
     92 H92       -70.8364   25.7560  -75.8448 H         1 UNK         0.0743 
     93 H93       -71.4100   26.1895  -73.4520 H         1 UNK         0.0784 
     94 H94       -73.1206   26.0261  -73.8168 H         1 UNK         0.0784 
     95 H95       -72.0443   24.6421  -73.9924 H         1 UNK         0.0784 
     96 H96       -73.5737   24.9815  -76.0448 H         1 UNK         0.3213 
     97 H97       -73.7705   25.1119  -79.6372 H         1 UNK         0.0855 
     98 H98       -73.7520   22.8318  -77.5869 H         1 UNK         0.0814 
     99 H99       -72.7994   22.9142  -79.0589 H         1 UNK         0.0814 
    100 H100      -74.5487   22.7811  -79.1585 H         1 UNK         0.0814 
    101 H101      -75.7138   24.4742  -77.6289 H         1 UNK         0.3105 
    102 H102      -76.9186   27.7724  -77.1121 H         1 UNK         0.0547 
    103 H103      -78.1355   27.0549  -79.1599 H         1 UNK         0.0837 
    104 H104      -78.2562   25.4141  -78.5441 H         1 UNK         0.0837 
    105 H105      -79.0822   26.7370  -77.7165 H         1 UNK         0.0837 
    106 H106      -77.6364   25.1382  -76.1490 H         1 UNK         0.3020 
    107 H107      -75.5456   25.2607  -73.2636 H         1 UNK         0.1245 
    108 H108      -78.5779   25.4398  -73.5357 H         1 UNK         0.0781 
    109 H109      -77.6546   26.7389  -72.9267 H         1 UNK         0.0781 
    110 H110      -77.0699   25.7693  -69.2547 H         1 UNK         0.0836 
    111 H111      -75.8313   26.0220  -70.4585 H         1 UNK         0.0836 
    112 H112      -77.5178   23.4016  -74.2343 H         1 UNK         0.3022 
    113 H113      -75.3250   21.4896  -76.2780 H         1 UNK         0.0747 
    114 H114      -74.6896   20.6905  -73.9942 H         1 UNK         0.0793 
    115 H115      -75.8830   19.6345  -74.7300 H         1 UNK         0.0793 
    116 H116      -76.3688   20.7832  -73.4814 H         1 UNK         0.0793 
    117 H117      -77.9562   20.9312  -75.4200 H         1 UNK         0.3047 
    118 H118      -79.4397   21.9044  -78.2912 H         1 UNK         0.0822 
    119 H119      -81.0325   20.6856  -76.8478 H         1 UNK         0.0807 
    120 H120      -80.0367   20.9618  -75.4280 H         1 UNK         0.0807 
    121 H121      -79.4516   19.9414  -76.7439 H         1 UNK         0.0807 
    122 H122      -80.7483   23.6054  -77.7432 H         1 UNK         0.2946 
    123 H123      -81.2803   25.5910  -76.7470 H         1 UNK         0.1144 
    124 H124      -83.0409   23.8649  -76.2417 H         1 UNK         0.0793 
    125 H125      -83.4611   25.4108  -75.5255 H         1 UNK         0.0793 
    126 H126      -82.8096   24.1199  -74.5171 H         1 UNK         0.0793 
    127 H127      -80.4058   25.7032  -73.9621 H         1 UNK         0.2896 
@<TRIPOS>BOND
     1    1    2 1    
     2    1   67 1    
     3    1   68 1    
     4    1   69 1    
     5    2    3 2    
     6    2    4 am   BACKBONE|DICT|INTERRES
     7    4    5 1    
     8    4   70 1    
     9    5    6 1    
    10    5   65 1    
    11    5   71 1    
    12    6    7 1    
    13    6   72 1    
    14    6   73 1    
    15    7    8 1    
    16    8    9 1    
    17    8   74 1    
    18    8   75 1    
    19    9   10 ar   
    20    9   14 ar   
    21   10   11 ar   
    22   10   76 1    
    23   11   12 ar   
    24   11   48 1    
    25   12   13 ar   
    26   12   77 1    
    27   13   14 ar   
    28   13   15 1    
    29   14   78 1    
    30   15   16 1    
    31   15   79 1    
    32   15   80 1    
    33   16   17 1    
    34   17   18 1    
    35   17   81 1    
    36   17   82 1    
    37   18   19 1    
    38   18   22 1    
    39   18   83 1    
    40   19   20 am   BACKBONE|DICT|INTERRES
    41   19   21 2    
    42   20   84 1    
    43   20   85 1    
    44   22   23 am   BACKBONE|DICT|INTERRES
    45   22   86 1    
    46   23   24 2    
    47   23   25 1    
    48   25   26 1    
    49   25   27 1    
    50   25   87 1    
    51   26   88 1    
    52   26   89 1    
    53   26   90 1    
    54   27   28 am   BACKBONE|DICT|INTERRES
    55   27   91 1    
    56   28   29 2    
    57   28   30 1    
    58   30   31 1    
    59   30   32 1    
    60   30   92 1    
    61   31   93 1    
    62   31   94 1    
    63   31   95 1    
    64   32   33 am   BACKBONE|DICT|INTERRES
    65   32   96 1    
    66   33   34 2    
    67   33   35 1    
    68   35   36 1    
    69   35   37 1    
    70   35   97 1    
    71   36   98 1    
    72   36   99 1    
    73   36  100 1    
    74   37   38 am   BACKBONE|DICT|INTERRES
    75   37  101 1    
    76   38   39 2    
    77   38   40 1    
    78   40   41 1    
    79   40   42 1    
    80   40  102 1    
    81   41  103 1    
    82   41  104 1    
    83   41  105 1    
    84   42   43 am   BACKBONE|DICT|INTERRES
    85   42  106 1    
    86   43   44 2    
    87   43   45 1    
    88   45   46 1    
    89   45   49 1    
    90   45  107 1    
    91   46   47 1    
    92   46  108 1    
    93   46  109 1    
    94   47   48 1    
    95   48  110 1    
    96   48  111 1    
    97   49   50 am   BACKBONE|DICT|INTERRES
    98   49  112 1    
    99   50   51 2    
   100   50   52 1    
   101   52   53 1    
   102   52   54 1    
   103   52  113 1    
   104   53  114 1    
   105   53  115 1    
   106   53  116 1    
   107   54   55 am   BACKBONE|DICT|INTERRES
   108   54  117 1    
   109   55   56 2    
   110   55   57 1    
   111   57   58 1    
   112   57   59 1    
   113   57  118 1    
   114   58  119 1    
   115   58  120 1    
   116   58  121 1    
   117   59   60 am   BACKBONE|DICT|INTERRES
   118   59  122 1    
   119   60   61 2    
   120   60   62 1    
   121   62   63 1    
   122   62   64 1    
   123   62  123 1    
   124   63  124 1    
   125   63  125 1    
   126   63  126 1    
   127   64   65 am   BACKBONE|DICT|INTERRES
   128   64  127 1    
   129   65   66 2    
@<TRIPOS>SUBSTRUCTURE
     1 UNK         1 GROUP             0       ****    0 ROOT    
