@<TRIPOS>MOLECULE
3R135
127   129    1
SMALL
USER_CHARGES


@<TRIPOS>ATOM
      1 CA        -81.8901   27.0202  -69.8619 C.3       0 UNK        -0.1998 
      2 C         -81.1306   27.0276  -71.1796 C.2       0 UNK         0.4909 
      3 O         -81.2561   27.9763  -71.9552 O.2       0 UNK        -0.5240 
      4 N         -80.3522   25.9717  -71.4476 N.am      1 UNK        -0.4739 
      5 CA        -79.5189   25.8009  -72.6462 C.3       1 UNK         0.0864 
      6 C6        -78.2949   24.8812  -72.3678 C.3       11 UNK        -0.0881 
      7 S7        -77.3605   25.3388  -70.8588 S.3       11 UNK        -0.2682 
      8 C8        -75.8583   26.1401  -71.5015 C.3       11 UNK         0.0289 
      9 C9        -76.1113   27.5798  -71.9255 C.ar      11 UNK        -0.0687 
     10 C10       -76.5468   27.8540  -73.2185 C.ar      11 UNK        -0.0823 
     11 C11       -76.7889   29.1614  -73.6471 C.ar      11 UNK        -0.0830 
     12 C12       -76.5355   30.2156  -72.7646 C.ar      11 UNK        -0.1021 
     13 C13       -76.0553   29.9612  -71.4750 C.ar      11 UNK        -0.0753 
     14 C14       -75.8671   28.6413  -71.0522 C.ar      11 UNK        -0.0933 
     15 C15       -75.7146   31.1058  -70.5374 C.3       11 UNK         0.0166 
     16 S16       -73.9649   31.5813  -70.7048 S.3       11 UNK        -0.2615 
     17 C17       -74.0249   32.7876  -72.0778 C.3       11 UNK        -0.0865 
     18 CA        -73.0170   32.5256  -73.2288 C.3       10 UNK         0.0862 
     19 C         -71.5307   32.6698  -72.7793 C.2       10 UNK         0.5551 
     20 N         -70.6605   31.6904  -72.9973 N.am      10 UNK        -0.7319 
     21 O         -71.1546   33.7061  -72.2362 O.2       10 UNK        -0.5018 
     22 N         -73.3267   31.2987  -73.9840 N.am      10 UNK        -0.4509 
     23 C         -72.9987   31.1171  -75.2720 C.2       10 UNK         0.4899 
     24 O         -72.4989   31.9994  -75.9728 O.2       10 UNK        -0.4839 
     25 CA        -73.2661   29.7250  -75.8852 C.3       9 UNK         0.0222 
     26 CB        -72.4640   29.4855  -77.1819 C.3       9 UNK        -0.1966 
     27 N         -73.0738   28.5965  -74.9633 N.am      9 UNK        -0.4218 
     28 C         -71.9606   28.3160  -74.2650 C.2       9 UNK         0.5020 
     29 O         -70.9642   29.0397  -74.2500 O.2       9 UNK        -0.5274 
     30 CA        -71.9323   27.0245  -73.4382 C.3       8 UNK         0.0270 
     31 CB        -72.4165   27.2877  -72.0032 C.3       8 UNK        -0.1976 
     32 N         -72.6803   25.9256  -74.0621 N.am      8 UNK        -0.4313 
     33 C         -72.3557   24.6315  -73.9163 C.2       8 UNK         0.5041 
     34 O         -71.4762   24.2337  -73.1503 O.2       8 UNK        -0.5577 
     35 CA        -73.1101   23.5880  -74.7669 C.3       7 UNK         0.0284 
     36 CB        -74.1788   22.8771  -73.9202 C.3       7 UNK        -0.1958 
     37 N         -73.7372   24.1242  -75.9777 N.am      7 UNK        -0.4454 
     38 C         -73.0919   24.7131  -76.9973 C.2       7 UNK         0.5089 
     39 O         -71.8653   24.7830  -77.0738 O.2       7 UNK        -0.5125 
     40 CA        -73.9433   25.3639  -78.1091 C.3       6 UNK         0.0408 
     41 CB        -73.8416   24.5469  -79.4071 C.3       6 UNK        -0.1791 
     42 N         -75.3605   25.5524  -77.7784 N.am      6 UNK        -0.4762 
     43 C         -75.8516   26.2455  -76.7402 C.2       6 UNK         0.5007 
     44 O         -75.1461   26.8616  -75.9384 O.2       6 UNK        -0.5032 
     45 CA        -77.3787   26.1668  -76.5133 C.3       5 UNK         0.0783 
     46 C46       -78.0952   27.4739  -76.9519 C.3       11 UNK        -0.0857 
     47 S47       -78.7310   28.4285  -75.5279 S.3       11 UNK        -0.2512 
     48 C48       -77.2848   29.4421  -75.0639 C.3       11 UNK         0.0225 
     49 N         -78.0067   24.9453  -77.0357 N.am      5 UNK        -0.4615 
     50 C         -77.6912   23.7050  -76.6245 C.2       4 UNK         0.5053 
     51 O         -76.7521   23.4706  -75.8616 O.2       4 UNK        -0.5105 
     52 CA        -78.5645   22.5466  -77.1324 C.3       4 UNK         0.0263 
     53 CB        -78.4841   21.3133  -76.2130 C.3       4 UNK        -0.1981 
     54 N         -79.9611   22.9678  -77.2313 N.am      4 UNK        -0.4224 
     55 C         -80.6455   23.1252  -78.3718 C.2       3 UNK         0.4895 
     56 O         -80.1693   22.9166  -79.4880 O.2       3 UNK        -0.5091 
     57 CA        -82.1084   23.5967  -78.2656 C.3       3 UNK         0.0250 
     58 CB        -83.0689   22.4303  -78.5514 C.3       3 UNK        -0.1996 
     59 N         -82.4574   24.1925  -76.9721 N.am      3 UNK        -0.4254 
     60 C         -82.0011   25.3669  -76.5153 C.2       2 UNK         0.5004 
     61 O         -81.2250   26.0823  -77.1480 O.2       2 UNK        -0.5226 
     62 CA        -82.4910   25.8271  -75.1277 C.3       2 UNK         0.0269 
     63 CB        -83.5016   24.8653  -74.4607 C.3       2 UNK        -0.1926 
     64 N         -81.3956   26.1104  -74.1935 N.am      2 UNK        -0.4687 
     65 C         -80.3883   25.3034  -73.8282 C.2       1 UNK         0.5165 
     66 O         -80.1825   24.1967  -74.3324 O.2       1 UNK        -0.5079 
     67 H67       -81.6120   27.8883  -69.2649 H         1 UNK         0.0900 
     68 H68       -81.6815   26.1251  -69.2762 H         1 UNK         0.0900 
     69 H69       -82.9630   27.0628  -70.0472 H         1 UNK         0.0900 
     70 H70       -80.2955   25.2179  -70.7776 H         1 UNK         0.2959 
     71 H71       -79.1325   26.7813  -72.9312 H         1 UNK         0.1079 
     72 H72       -78.6234   23.8490  -72.2317 H         1 UNK         0.0837 
     73 H73       -77.6228   24.8628  -73.2271 H         1 UNK         0.0837 
     74 H74       -75.0961   26.1166  -70.7213 H         1 UNK         0.0685 
     75 H75       -75.4521   25.5629  -72.3330 H         1 UNK         0.0685 
     76 H76       -76.6974   27.0296  -73.8839 H         1 UNK         0.1434 
     77 H77       -76.6953   31.2353  -73.0862 H         1 UNK         0.1329 
     78 H78       -75.5018   28.4422  -70.0540 H         1 UNK         0.1335 
     79 H79       -76.3635   31.9643  -70.7168 H         1 UNK         0.0680 
     80 H80       -75.8962   30.8018  -69.5053 H         1 UNK         0.0680 
     81 H81       -73.8544   33.7793  -71.6546 H         1 UNK         0.1032 
     82 H82       -75.0327   32.8298  -72.4906 H         1 UNK         0.1032 
     83 H83       -73.1635   33.3570  -73.9214 H         1 UNK         0.0461 
     84 H84       -69.7048   31.8112  -72.7037 H         1 UNK         0.3453 
     85 H85       -70.9359   30.8320  -73.4640 H         1 UNK         0.3453 
     86 H86       -73.7162   30.5320  -73.4546 H         1 UNK         0.2984 
     87 H87       -74.3198   29.7194  -76.1575 H         1 UNK         0.0554 
     88 H88       -72.6952   28.5137  -77.6164 H         1 UNK         0.0847 
     89 H89       -71.3889   29.5257  -77.0035 H         1 UNK         0.0847 
     90 H90       -72.6982   30.2377  -77.9361 H         1 UNK         0.0847 
     91 H91       -73.8658   27.9636  -74.9215 H         1 UNK         0.3141 
     92 H92       -70.8817   26.7289  -73.3855 H         1 UNK         0.0743 
     93 H93       -73.4220   27.6995  -71.9951 H         1 UNK         0.0784 
     94 H94       -72.4129   26.3796  -71.4004 H         1 UNK         0.0784 
     95 H95       -71.7714   28.0121  -71.5042 H         1 UNK         0.0784 
     96 H96       -73.3932   26.1649  -74.7403 H         1 UNK         0.3213 
     97 H97       -72.3757   22.8444  -75.0831 H         1 UNK         0.0855 
     98 H98       -74.9752   23.5583  -73.6194 H         1 UNK         0.0814 
     99 H99       -73.7460   22.4570  -73.0112 H         1 UNK         0.0814 
    100 H100      -74.6367   22.0544  -74.4698 H         1 UNK         0.0814 
    101 H101      -74.7503   24.0735  -76.0157 H         1 UNK         0.3105 
    102 H102      -73.5210   26.3526  -78.2954 H         1 UNK         0.0547 
    103 H103      -72.8009   24.4176  -79.7082 H         1 UNK         0.0837 
    104 H104      -74.2726   23.5516  -79.2918 H         1 UNK         0.0837 
    105 H105      -74.3534   25.0432  -80.2318 H         1 UNK         0.0837 
    106 H106      -76.0238   25.0654  -78.3640 H         1 UNK         0.3020 
    107 H107      -77.5152   26.0421  -75.4441 H         1 UNK         0.1245 
    108 H108      -78.9495   27.2492  -77.5905 H         1 UNK         0.0781 
    109 H109      -77.4616   28.1187  -77.5650 H         1 UNK         0.0781 
    110 H110      -77.5594   30.4925  -75.1714 H         1 UNK         0.0836 
    111 H111      -76.4694   29.2693  -75.7629 H         1 UNK         0.0836 
    112 H112      -78.8096   25.0683  -77.6370 H         1 UNK         0.3022 
    113 H113      -78.1737   22.2635  -78.1116 H         1 UNK         0.0747 
    114 H114      -79.1125   20.5026  -76.5817 H         1 UNK         0.0793 
    115 H115      -77.4643   20.9302  -76.1556 H         1 UNK         0.0793 
    116 H116      -78.8029   21.5503  -75.1968 H         1 UNK         0.0793 
    117 H117      -80.4018   23.2288  -76.3559 H         1 UNK         0.3047 
    118 H118      -82.2562   24.3575  -79.0352 H         1 UNK         0.0822 
    119 H119      -84.1069   22.7636  -78.5647 H         1 UNK         0.0807 
    120 H120      -82.9779   21.6398  -77.8052 H         1 UNK         0.0807 
    121 H121      -82.8631   21.9835  -79.5253 H         1 UNK         0.0807 
    122 H122      -83.0855   23.6632  -76.3846 H         1 UNK         0.2946 
    123 H123      -83.0020   26.7762  -75.2975 H         1 UNK         0.1144 
    124 H124      -84.3816   24.7121  -75.0869 H         1 UNK         0.0793 
    125 H125      -83.8587   25.2734  -73.5148 H         1 UNK         0.0793 
    126 H126      -83.0628   23.8894  -74.2483 H         1 UNK         0.0793 
    127 H127      -81.4617   26.9941  -73.6965 H         1 UNK         0.2896 
@<TRIPOS>BOND
     1    1    2 1    
     2    1   67 1    
     3    1   68 1    
     4    1   69 1    
     5    2    3 2    
     6    2    4 am   BACKBONE|DICT|INTERRES
     7    4    5 1    
     8    4   70 1    
     9    5    6 1    
    10    5   65 1    
    11    5   71 1    
    12    6    7 1    
    13    6   72 1    
    14    6   73 1    
    15    7    8 1    
    16    8    9 1    
    17    8   74 1    
    18    8   75 1    
    19    9   10 ar   
    20    9   14 ar   
    21   10   11 ar   
    22   10   76 1    
    23   11   12 ar   
    24   11   48 1    
    25   12   13 ar   
    26   12   77 1    
    27   13   14 ar   
    28   13   15 1    
    29   14   78 1    
    30   15   16 1    
    31   15   79 1    
    32   15   80 1    
    33   16   17 1    
    34   17   18 1    
    35   17   81 1    
    36   17   82 1    
    37   18   19 1    
    38   18   22 1    
    39   18   83 1    
    40   19   20 am   BACKBONE|DICT|INTERRES
    41   19   21 2    
    42   20   84 1    
    43   20   85 1    
    44   22   23 am   BACKBONE|DICT|INTERRES
    45   22   86 1    
    46   23   24 2    
    47   23   25 1    
    48   25   26 1    
    49   25   27 1    
    50   25   87 1    
    51   26   88 1    
    52   26   89 1    
    53   26   90 1    
    54   27   28 am   BACKBONE|DICT|INTERRES
    55   27   91 1    
    56   28   29 2    
    57   28   30 1    
    58   30   31 1    
    59   30   32 1    
    60   30   92 1    
    61   31   93 1    
    62   31   94 1    
    63   31   95 1    
    64   32   33 am   BACKBONE|DICT|INTERRES
    65   32   96 1    
    66   33   34 2    
    67   33   35 1    
    68   35   36 1    
    69   35   37 1    
    70   35   97 1    
    71   36   98 1    
    72   36   99 1    
    73   36  100 1    
    74   37   38 am   BACKBONE|DICT|INTERRES
    75   37  101 1    
    76   38   39 2    
    77   38   40 1    
    78   40   41 1    
    79   40   42 1    
    80   40  102 1    
    81   41  103 1    
    82   41  104 1    
    83   41  105 1    
    84   42   43 am   BACKBONE|DICT|INTERRES
    85   42  106 1    
    86   43   44 2    
    87   43   45 1    
    88   45   46 1    
    89   45   49 1    
    90   45  107 1    
    91   46   47 1    
    92   46  108 1    
    93   46  109 1    
    94   47   48 1    
    95   48  110 1    
    96   48  111 1    
    97   49   50 am   BACKBONE|DICT|INTERRES
    98   49  112 1    
    99   50   51 2    
   100   50   52 1    
   101   52   53 1    
   102   52   54 1    
   103   52  113 1    
   104   53  114 1    
   105   53  115 1    
   106   53  116 1    
   107   54   55 am   BACKBONE|DICT|INTERRES
   108   54  117 1    
   109   55   56 2    
   110   55   57 1    
   111   57   58 1    
   112   57   59 1    
   113   57  118 1    
   114   58  119 1    
   115   58  120 1    
   116   58  121 1    
   117   59   60 am   BACKBONE|DICT|INTERRES
   118   59  122 1    
   119   60   61 2    
   120   60   62 1    
   121   62   63 1    
   122   62   64 1    
   123   62  123 1    
   124   63  124 1    
   125   63  125 1    
   126   63  126 1    
   127   64   65 am   BACKBONE|DICT|INTERRES
   128   64  127 1    
   129   65   66 2    
@<TRIPOS>SUBSTRUCTURE
     1 UNK         1 GROUP             0       ****    0 ROOT    
