@<TRIPOS>MOLECULE
3R135
127   129    1
SMALL
USER_CHARGES


@<TRIPOS>ATOM
      1 CA        -78.6818   27.2371  -75.6426 C.3       0 UNK        -0.1998 
      2 C         -79.6316   26.5878  -74.6505 C.2       0 UNK         0.4909 
      3 O         -79.7657   25.3632  -74.6441 O.2       0 UNK        -0.5240 
      4 N         -80.2832   27.4054  -73.8138 N.am      1 UNK        -0.4739 
      5 CA        -81.2778   26.9890  -72.8214 C.3       1 UNK         0.0864 
      6 C6        -81.6718   28.1647  -71.8888 C.3       11 UNK        -0.0881 
      7 S7        -80.5932   28.2782  -70.4235 S.3       11 UNK        -0.2682 
      8 C8        -79.3686   29.5441  -70.9065 C.3       11 UNK         0.0289 
      9 C9        -78.2093   29.0129  -71.7484 C.ar      11 UNK        -0.0687 
     10 C10       -77.6538   27.7488  -71.5139 C.ar      11 UNK        -0.0823 
     11 C11       -76.5734   27.2902  -72.2724 C.ar      11 UNK        -0.0830 
     12 C12       -76.0168   28.1205  -73.2482 C.ar      11 UNK        -0.1021 
     13 C13       -76.5445   29.3935  -73.4812 C.ar      11 UNK        -0.0753 
     14 C14       -77.6506   29.8251  -72.7406 C.ar      11 UNK        -0.0933 
     15 C15       -75.9082   30.3005  -74.5276 C.3       11 UNK         0.0166 
     16 S16       -75.4065   31.9190  -73.8507 S.3       11 UNK        -0.2615 
     17 C17       -74.2402   31.4558  -72.5204 C.3       11 UNK        -0.0865 
     18 CA        -72.7683   31.8030  -72.8622 C.3       10 UNK         0.0862 
     19 C         -71.8464   31.6306  -71.6171 C.2       10 UNK         0.5551 
     20 N         -70.8159   30.7928  -71.6459 N.am      10 UNK        -0.7319 
     21 O         -72.0694   32.2820  -70.5996 O.2       10 UNK        -0.5018 
     22 N         -72.3129   31.0823  -74.0597 N.am      10 UNK        -0.4509 
     23 C         -71.2934   31.4557  -74.8412 C.2       10 UNK         0.4899 
     24 O         -70.6706   32.5095  -74.6992 O.2       10 UNK        -0.4839 
     25 CA        -70.9053   30.4710  -75.9626 C.3       9 UNK         0.0222 
     26 CB        -69.4735   30.7020  -76.4901 C.3       9 UNK        -0.1966 
     27 N         -71.0971   29.0595  -75.5977 N.am      9 UNK        -0.4218 
     28 C         -70.5306   28.3993  -74.5715 C.2       9 UNK         0.5020 
     29 O         -69.7955   28.9355  -73.7412 O.2       9 UNK        -0.5274 
     30 CA        -70.8514   26.8987  -74.4080 C.3       8 UNK         0.0270 
     31 CB        -71.7920   26.6882  -73.2090 C.3       8 UNK        -0.1976 
     32 N         -71.4481   26.2853  -75.5978 N.am      8 UNK        -0.4313 
     33 C         -70.8155   26.1022  -76.7683 C.2       8 UNK         0.5041 
     34 O         -69.6100   26.2988  -76.9255 O.2       8 UNK        -0.5577 
     35 CA        -71.6633   25.6701  -77.9838 C.3       7 UNK         0.0284 
     36 CB        -71.4530   24.1763  -78.2800 C.3       7 UNK        -0.1958 
     37 N         -73.1003   25.9308  -77.8449 N.am      7 UNK        -0.4454 
     38 C         -73.6704   27.1237  -77.6186 C.2       7 UNK         0.5089 
     39 O         -73.0479   28.1855  -77.5948 O.2       7 UNK        -0.5125 
     40 CA        -75.1729   27.1262  -77.2802 C.3       6 UNK         0.0408 
     41 CB        -75.9978   27.5339  -78.5103 C.3       6 UNK        -0.1791 
     42 N         -75.6880   25.8561  -76.7495 N.am      6 UNK        -0.4762 
     43 C         -75.2463   25.2029  -75.6616 C.2       6 UNK         0.5007 
     44 O         -74.2787   25.5875  -75.0034 O.2       6 UNK        -0.5032 
     45 CA        -75.9707   23.8932  -75.2675 C.3       5 UNK         0.0783 
     46 C46       -75.9573   23.6120  -73.7401 C.3       11 UNK        -0.0857 
     47 S47       -77.1077   24.6350  -72.7610 S.3       11 UNK        -0.2512 
     48 C48       -76.0132   25.8968  -72.0347 C.3       11 UNK         0.0225 
     49 N         -77.3146   23.7711  -75.8594 N.am      5 UNK        -0.4615 
     50 C         -77.5577   23.3222  -77.0993 C.2       4 UNK         0.5053 
     51 O         -76.6652   22.9740  -77.8728 O.2       4 UNK        -0.5105 
     52 CA        -79.0257   23.2569  -77.5455 C.3       4 UNK         0.0263 
     53 CB        -79.2200   22.5224  -78.8887 C.3       4 UNK        -0.1981 
     54 N         -79.8305   22.6284  -76.5014 N.am      4 UNK        -0.4224 
     55 C         -81.1358   22.8425  -76.3005 C.2       3 UNK         0.4895 
     56 O         -81.8288   23.5556  -77.0295 O.2       3 UNK        -0.5091 
     57 CA        -81.7858   22.1474  -75.0901 C.3       3 UNK         0.0250 
     58 CB        -80.7952   21.3652  -74.2003 C.3       3 UNK        -0.1996 
     59 N         -82.4490   23.1573  -74.2702 N.am      3 UNK        -0.4254 
     60 C         -83.7604   23.4321  -74.2674 C.2       2 UNK         0.5004 
     61 O         -84.5948   22.8072  -74.9240 O.2       2 UNK        -0.5226 
     62 CA        -84.2342   24.5853  -73.3597 C.3       2 UNK         0.0269 
     63 CB        -85.0566   24.0405  -72.1792 C.3       2 UNK        -0.1926 
     64 N         -83.1241   25.3860  -72.8316 N.am      2 UNK        -0.4687 
     65 C         -82.5219   26.3780  -73.5003 C.2       1 UNK         0.5165 
     66 O         -82.9175   26.8126  -74.5852 O.2       1 UNK        -0.5079 
     67 H67       -77.6558   27.0829  -75.3167 H         1 UNK         0.0900 
     68 H68       -78.8525   28.3101  -75.7268 H         1 UNK         0.0900 
     69 H69       -78.8051   26.7940  -76.6298 H         1 UNK         0.0900 
     70 H70       -80.1131   28.3982  -73.8675 H         1 UNK         0.2959 
     71 H71       -80.8162   26.1969  -72.2267 H         1 UNK         0.1079 
     72 H72       -81.6917   29.1142  -72.4266 H         1 UNK         0.0837 
     73 H73       -82.6830   28.0366  -71.4958 H         1 UNK         0.0837 
     74 H74       -78.9491   29.9743  -69.9963 H         1 UNK         0.0685 
     75 H75       -79.8804   30.3592  -71.4204 H         1 UNK         0.0685 
     76 H76       -78.0678   27.1088  -70.7474 H         1 UNK         0.1434 
     77 H77       -75.1724   27.7735  -73.8268 H         1 UNK         0.1329 
     78 H78       -78.0563   30.8116  -72.9196 H         1 UNK         0.1335 
     79 H79       -76.6224   30.4613  -75.3362 H         1 UNK         0.0680 
     80 H80       -75.0351   29.8262  -74.9779 H         1 UNK         0.0680 
     81 H81       -74.5585   31.9906  -71.6234 H         1 UNK         0.1032 
     82 H82       -74.3333   30.3963  -72.2783 H         1 UNK         0.1032 
     83 H83       -72.7380   32.8691  -73.0959 H         1 UNK         0.0461 
     84 H84       -70.5900   30.2563  -72.4766 H         1 UNK         0.3453 
     85 H85       -70.2352   30.7065  -70.8274 H         1 UNK         0.3453 
     86 H86       -72.7597   30.1984  -74.2456 H         1 UNK         0.2984 
     87 H87       -71.5947   30.6650  -76.7856 H         1 UNK         0.0554 
     88 H88       -69.2299   30.0058  -77.2927 H         1 UNK         0.0847 
     89 H89       -68.7287   30.5799  -75.7029 H         1 UNK         0.0847 
     90 H90       -69.3603   31.7097  -76.8917 H         1 UNK         0.0847 
     91 H91       -71.7157   28.5447  -76.2195 H         1 UNK         0.3141 
     92 H92       -69.9100   26.3855  -74.2014 H         1 UNK         0.0743 
     93 H93       -71.3480   27.0735  -72.2901 H         1 UNK         0.0784 
     94 H94       -72.7448   27.1997  -73.3489 H         1 UNK         0.0784 
     95 H95       -72.0016   25.6304  -73.0482 H         1 UNK         0.0784 
     96 H96       -72.4379   26.0601  -75.5354 H         1 UNK         0.3213 
     97 H97       -71.3093   26.2457  -78.8416 H         1 UNK         0.0855 
     98 H98       -71.8128   23.5485  -77.4638 H         1 UNK         0.0814 
     99 H99       -70.3947   23.9515  -78.4212 H         1 UNK         0.0814 
    100 H100      -71.9694   23.8741  -79.1913 H         1 UNK         0.0814 
    101 H101      -73.7059   25.1231  -77.8408 H         1 UNK         0.3105 
    102 H102      -75.3233   27.8804  -76.5060 H         1 UNK         0.0547 
    103 H103      -75.9280   26.7926  -79.3072 H         1 UNK         0.0837 
    104 H104      -77.0507   27.6633  -78.2612 H         1 UNK         0.0837 
    105 H105      -75.6476   28.4835  -78.9178 H         1 UNK         0.0837 
    106 H106      -76.4517   25.4361  -77.2585 H         1 UNK         0.3020 
    107 H107      -75.3476   23.1109  -75.7076 H         1 UNK         0.1245 
    108 H108      -74.9478   23.6842  -73.3315 H         1 UNK         0.0781 
    109 H109      -76.2489   22.5735  -73.5765 H         1 UNK         0.0781 
    110 H110      -75.0051   25.8203  -72.4433 H         1 UNK         0.0836 
    111 H111      -75.9196   25.7136  -70.9634 H         1 UNK         0.0836 
    112 H112      -78.0859   24.1050  -75.2889 H         1 UNK         0.3022 
    113 H113      -79.3539   24.2915  -77.6675 H         1 UNK         0.0747 
    114 H114      -80.2633   22.5362  -79.2041 H         1 UNK         0.0793 
    115 H115      -78.6400   22.9947  -79.6826 H         1 UNK         0.0793 
    116 H116      -78.9032   21.4808  -78.8253 H         1 UNK         0.0793 
    117 H117      -79.3289   22.0391  -75.8510 H         1 UNK         0.3047 
    118 H118      -82.5178   21.4391  -75.4836 H         1 UNK         0.0822 
    119 H119      -80.3110   20.5594  -74.7538 H         1 UNK         0.0807 
    120 H120      -81.3130   20.8998  -73.3612 H         1 UNK         0.0807 
    121 H121      -80.0175   22.0091  -73.7859 H         1 UNK         0.0807 
    122 H122      -81.8378   23.7759  -73.7567 H         1 UNK         0.2946 
    123 H123      -84.8838   25.2239  -73.9633 H         1 UNK         0.1144 
    124 H124      -85.9159   23.4685  -72.5323 H         1 UNK         0.0793 
    125 H125      -85.4424   24.8488  -71.5577 H         1 UNK         0.0793 
    126 H126      -84.4648   23.3800  -71.5442 H         1 UNK         0.0793 
    127 H127      -82.7615   25.1099  -71.9294 H         1 UNK         0.2896 
@<TRIPOS>BOND
     1    1    2 1    
     2    1   67 1    
     3    1   68 1    
     4    1   69 1    
     5    2    3 2    
     6    2    4 am   BACKBONE|DICT|INTERRES
     7    4    5 1    
     8    4   70 1    
     9    5    6 1    
    10    5   65 1    
    11    5   71 1    
    12    6    7 1    
    13    6   72 1    
    14    6   73 1    
    15    7    8 1    
    16    8    9 1    
    17    8   74 1    
    18    8   75 1    
    19    9   10 ar   
    20    9   14 ar   
    21   10   11 ar   
    22   10   76 1    
    23   11   12 ar   
    24   11   48 1    
    25   12   13 ar   
    26   12   77 1    
    27   13   14 ar   
    28   13   15 1    
    29   14   78 1    
    30   15   16 1    
    31   15   79 1    
    32   15   80 1    
    33   16   17 1    
    34   17   18 1    
    35   17   81 1    
    36   17   82 1    
    37   18   19 1    
    38   18   22 1    
    39   18   83 1    
    40   19   20 am   BACKBONE|DICT|INTERRES
    41   19   21 2    
    42   20   84 1    
    43   20   85 1    
    44   22   23 am   BACKBONE|DICT|INTERRES
    45   22   86 1    
    46   23   24 2    
    47   23   25 1    
    48   25   26 1    
    49   25   27 1    
    50   25   87 1    
    51   26   88 1    
    52   26   89 1    
    53   26   90 1    
    54   27   28 am   BACKBONE|DICT|INTERRES
    55   27   91 1    
    56   28   29 2    
    57   28   30 1    
    58   30   31 1    
    59   30   32 1    
    60   30   92 1    
    61   31   93 1    
    62   31   94 1    
    63   31   95 1    
    64   32   33 am   BACKBONE|DICT|INTERRES
    65   32   96 1    
    66   33   34 2    
    67   33   35 1    
    68   35   36 1    
    69   35   37 1    
    70   35   97 1    
    71   36   98 1    
    72   36   99 1    
    73   36  100 1    
    74   37   38 am   BACKBONE|DICT|INTERRES
    75   37  101 1    
    76   38   39 2    
    77   38   40 1    
    78   40   41 1    
    79   40   42 1    
    80   40  102 1    
    81   41  103 1    
    82   41  104 1    
    83   41  105 1    
    84   42   43 am   BACKBONE|DICT|INTERRES
    85   42  106 1    
    86   43   44 2    
    87   43   45 1    
    88   45   46 1    
    89   45   49 1    
    90   45  107 1    
    91   46   47 1    
    92   46  108 1    
    93   46  109 1    
    94   47   48 1    
    95   48  110 1    
    96   48  111 1    
    97   49   50 am   BACKBONE|DICT|INTERRES
    98   49  112 1    
    99   50   51 2    
   100   50   52 1    
   101   52   53 1    
   102   52   54 1    
   103   52  113 1    
   104   53  114 1    
   105   53  115 1    
   106   53  116 1    
   107   54   55 am   BACKBONE|DICT|INTERRES
   108   54  117 1    
   109   55   56 2    
   110   55   57 1    
   111   57   58 1    
   112   57   59 1    
   113   57  118 1    
   114   58  119 1    
   115   58  120 1    
   116   58  121 1    
   117   59   60 am   BACKBONE|DICT|INTERRES
   118   59  122 1    
   119   60   61 2    
   120   60   62 1    
   121   62   63 1    
   122   62   64 1    
   123   62  123 1    
   124   63  124 1    
   125   63  125 1    
   126   63  126 1    
   127   64   65 am   BACKBONE|DICT|INTERRES
   128   64  127 1    
   129   65   66 2    
@<TRIPOS>SUBSTRUCTURE
     1 UNK         1 GROUP             0       ****    0 ROOT    
