@<TRIPOS>MOLECULE
3R135
127   129    1
SMALL
USER_CHARGES


@<TRIPOS>ATOM
      1 CA        -81.4971   22.6368  -70.6776 C.3       0 UNK        -0.1998 
      2 C         -82.1264   23.8769  -71.2945 C.2       0 UNK         0.4909 
      3 O         -83.2848   24.1856  -71.0107 O.2       0 UNK        -0.5240 
      4 N         -81.3683   24.5877  -72.1342 N.am      1 UNK        -0.4739 
      5 CA        -81.8218   25.7459  -72.9083 C.3       1 UNK         0.0864 
      6 C6        -80.6354   26.6764  -73.2753 C.3       11 UNK        -0.0881 
      7 S7        -79.6937   27.2599  -71.8229 S.3       11 UNK        -0.2682 
      8 C8        -79.4074   29.0095  -72.2383 C.3       11 UNK         0.0289 
      9 C9        -78.1617   29.1978  -73.0947 C.ar      11 UNK        -0.0687 
     10 C10       -78.1729   28.8649  -74.4537 C.ar      11 UNK        -0.0823 
     11 C11       -77.0316   29.0485  -75.2416 C.ar      11 UNK        -0.0830 
     12 C12       -75.8863   29.6094  -74.6677 C.ar      11 UNK        -0.1021 
     13 C13       -75.8752   29.9834  -73.3213 C.ar      11 UNK        -0.0753 
     14 C14       -77.0059   29.7507  -72.5336 C.ar      11 UNK        -0.0933 
     15 C15       -74.6773   30.7240  -72.7472 C.3       11 UNK         0.0166 
     16 S16       -73.2719   29.6307  -72.3797 S.3       11 UNK        -0.2615 
     17 C17       -71.9780   30.9004  -72.1083 C.3       11 UNK        -0.0865 
     18 CA        -71.0263   31.1681  -73.3182 C.3       10 UNK         0.0862 
     19 C         -69.6706   30.4118  -73.2188 C.2       10 UNK         0.5551 
     20 N         -68.8697   30.7148  -72.2059 N.am      10 UNK        -0.7319 
     21 O         -69.3333   29.5577  -74.0354 O.2       10 UNK        -0.5018 
     22 N         -71.6997   30.9648  -74.6073 N.am      10 UNK        -0.4509 
     23 C         -71.3764   31.5506  -75.7638 C.2       10 UNK         0.4899 
     24 O         -70.5282   32.4374  -75.8786 O.2       10 UNK        -0.4839 
     25 CA        -72.1516   31.0381  -76.9909 C.3       9 UNK         0.0222 
     26 CB        -71.7991   31.7839  -78.2962 C.3       9 UNK        -0.1966 
     27 N         -72.0098   29.5846  -77.1444 N.am      9 UNK        -0.4218 
     28 C         -70.8925   28.8913  -77.4066 C.2       9 UNK         0.5020 
     29 O         -69.7876   29.3967  -77.6144 O.2       9 UNK        -0.5274 
     30 CA        -71.0509   27.3587  -77.4385 C.3       8 UNK         0.0270 
     31 CB        -69.9640   26.6773  -78.2912 C.3       8 UNK        -0.1976 
     32 N         -71.0355   26.7739  -76.0957 N.am      8 UNK        -0.4313 
     33 C         -72.0071   26.9014  -75.1847 C.2       8 UNK         0.5041 
     34 O         -73.0390   27.5565  -75.3699 O.2       8 UNK        -0.5577 
     35 CA        -71.8051   26.1509  -73.8608 C.3       7 UNK         0.0284 
     36 CB        -70.7036   26.7866  -72.9926 C.3       7 UNK        -0.1958 
     37 N         -73.0795   26.1484  -73.1552 N.am      7 UNK        -0.4454 
     38 C         -73.4230   25.3807  -72.1167 C.2       7 UNK         0.5089 
     39 O         -72.6563   24.6013  -71.5496 O.2       7 UNK        -0.5125 
     40 CA        -74.8888   25.4699  -71.6535 C.3       6 UNK         0.0408 
     41 CB        -75.0613   26.5578  -70.5819 C.3       6 UNK        -0.1791 
     42 N         -75.8279   25.7191  -72.7512 N.am      6 UNK        -0.4762 
     43 C         -76.0689   24.8642  -73.7560 C.2       6 UNK         0.5007 
     44 O         -75.5202   23.7656  -73.8763 O.2       6 UNK        -0.5032 
     45 CA        -77.0741   25.3378  -74.8213 C.3       5 UNK         0.0783 
     46 C46       -76.3387   26.0353  -75.9898 C.3       11 UNK        -0.0857 
     47 S47       -77.5136   26.9488  -77.0422 S.3       11 UNK        -0.2512 
     48 C48       -77.0378   28.6815  -76.7228 C.3       11 UNK         0.0225 
     49 N         -77.9219   24.2426  -75.3041 N.am      5 UNK        -0.4615 
     50 C         -78.7460   23.4985  -74.5581 C.2       4 UNK         0.5053 
     51 O         -78.9370   23.6802  -73.3540 O.2       4 UNK        -0.5105 
     52 CA        -79.5090   22.3920  -75.3034 C.3       4 UNK         0.0263 
     53 CB        -80.2859   21.4614  -74.3524 C.3       4 UNK        -0.1981 
     54 N         -80.4379   22.9737  -76.2754 N.am      4 UNK        -0.4224 
     55 C         -80.1271   23.2804  -77.5439 C.2       3 UNK         0.4895 
     56 O         -78.9979   23.1313  -78.0132 O.2       3 UNK        -0.5091 
     57 CA        -81.2434   23.8264  -78.4563 C.3       3 UNK         0.0250 
     58 CB        -81.7808   22.7086  -79.3652 C.3       3 UNK        -0.1996 
     59 N         -82.3623   24.4190  -77.7199 N.am      3 UNK        -0.4254 
     60 C         -82.3614   25.6597  -77.2157 C.2       2 UNK         0.5004 
     61 O         -81.4431   26.4637  -77.3791 O.2       2 UNK        -0.5226 
     62 CA        -83.5572   26.0737  -76.3326 C.3       2 UNK         0.0269 
     63 CB        -84.7902   25.1453  -76.4384 C.3       2 UNK        -0.1926 
     64 N         -83.1186   26.2242  -74.9381 N.am      2 UNK        -0.4687 
     65 C         -82.5302   25.2732  -74.1959 C.2       1 UNK         0.5165 
     66 O         -82.4725   24.0890  -74.5412 O.2       1 UNK        -0.5079 
     67 H67       -80.4719   22.4915  -71.0190 H         1 UNK         0.0900 
     68 H68       -82.0719   21.7512  -70.9469 H         1 UNK         0.0900 
     69 H69       -81.4851   22.7211  -69.5914 H         1 UNK         0.0900 
     70 H70       -80.4391   24.2531  -72.3800 H         1 UNK         0.2959 
     71 H71       -82.5435   26.3114  -72.3147 H         1 UNK         0.1079 
     72 H72       -81.0010   27.5440  -73.8259 H         1 UNK         0.0837 
     73 H73       -79.9475   26.1685  -73.9499 H         1 UNK         0.0837 
     74 H74       -80.2773   29.4333  -72.7417 H         1 UNK         0.0685 
     75 H75       -79.3071   29.5655  -71.3049 H         1 UNK         0.0685 
     76 H76       -79.0668   28.4563  -74.9033 H         1 UNK         0.1434 
     77 H77       -75.0075   29.7819  -75.2736 H         1 UNK         0.1329 
     78 H78       -76.9994   30.0387  -71.4911 H         1 UNK         0.1335 
     79 H79       -74.3642   31.4880  -73.4607 H         1 UNK         0.0680 
     80 H80       -74.9582   31.2565  -71.8370 H         1 UNK         0.0680 
     81 H81       -71.4216   30.6228  -71.2114 H         1 UNK         0.1032 
     82 H82       -72.4690   31.8366  -71.8386 H         1 UNK         0.1032 
     83 H83       -70.7576   32.2257  -73.2730 H         1 UNK         0.0461 
     84 H84       -69.1183   31.4224  -71.5324 H         1 UNK         0.3453 
     85 H85       -67.9869   30.2352  -72.1236 H         1 UNK         0.3453 
     86 H86       -72.3701   30.2086  -74.6147 H         1 UNK         0.2984 
     87 H87       -73.2077   31.2222  -76.7878 H         1 UNK         0.0554 
     88 H88       -72.3814   31.4087  -79.1375 H         1 UNK         0.0847 
     89 H89       -70.7430   31.6894  -78.5503 H         1 UNK         0.0847 
     90 H90       -72.0132   32.8493  -78.2033 H         1 UNK         0.0847 
     91 H91       -72.8157   29.0302  -76.8737 H         1 UNK         0.3141 
     92 H92       -72.0161   27.1337  -77.8982 H         1 UNK         0.0743 
     93 H93       -69.9463   27.0895  -79.3010 H         1 UNK         0.0784 
     94 H94       -70.1452   25.6062  -78.3837 H         1 UNK         0.0784 
     95 H95       -68.9687   26.8142  -77.8662 H         1 UNK         0.0784 
     96 H96       -70.2078   26.2513  -75.8478 H         1 UNK         0.3213 
     97 H97       -71.5363   25.1188  -74.0947 H         1 UNK         0.0855 
     98 H98       -69.7609   26.8617  -73.5354 H         1 UNK         0.0814 
     99 H99       -70.5087   26.1970  -72.0972 H         1 UNK         0.0814 
    100 H100      -70.9787   27.7903  -72.6726 H         1 UNK         0.0814 
    101 H101      -73.7684   26.7606  -73.5781 H         1 UNK         0.3105 
    102 H102      -75.1498   24.5091  -71.2048 H         1 UNK         0.0547 
    103 H103      -74.8710   27.5539  -70.9816 H         1 UNK         0.0837 
    104 H104      -74.3707   26.4020  -69.7521 H         1 UNK         0.0837 
    105 H105      -76.0702   26.5512  -70.1689 H         1 UNK         0.0837 
    106 H106      -76.3136   26.6056  -72.7317 H         1 UNK         0.3020 
    107 H107      -77.7293   26.0635  -74.3393 H         1 UNK         0.1245 
    108 H108      -75.8061   25.3069  -76.6039 H         1 UNK         0.0781 
    109 H109      -75.5779   26.7266  -75.6232 H         1 UNK         0.0781 
    110 H110      -77.7324   29.3392  -77.2468 H         1 UNK         0.0836 
    111 H111      -76.0567   28.8557  -77.1678 H         1 UNK         0.0836 
    112 H112      -77.8629   24.0353  -76.2932 H         1 UNK         0.3022 
    113 H113      -78.7693   21.7794  -75.8234 H         1 UNK         0.0747 
    114 H114      -80.7764   20.6568  -74.9002 H         1 UNK         0.0793 
    115 H115      -79.6157   20.9981  -73.6272 H         1 UNK         0.0793 
    116 H116      -81.0514   21.9969  -73.7908 H         1 UNK         0.0793 
    117 H117      -81.3533   23.2239  -75.9122 H         1 UNK         0.3047 
    118 H118      -80.7956   24.5929  -79.0930 H         1 UNK         0.0822 
    119 H119      -82.5214   23.0902  -80.0683 H         1 UNK         0.0807 
    120 H120      -82.2446   21.9065  -78.7895 H         1 UNK         0.0807 
    121 H121      -80.9770   22.2640  -79.9540 H         1 UNK         0.0807 
    122 H122      -83.1470   23.8171  -77.5146 H         1 UNK         0.2946 
    123 H123      -83.8601   27.0632  -76.6798 H         1 UNK         0.1144 
    124 H124      -85.1363   25.0700  -77.4702 H         1 UNK         0.0793 
    125 H125      -85.6215   25.5392  -75.8536 H         1 UNK         0.0793 
    126 H126      -84.5927   24.1347  -76.0808 H         1 UNK         0.0793 
    127 H127      -83.1166   27.1732  -74.5901 H         1 UNK         0.2896 
@<TRIPOS>BOND
     1    1    2 1    
     2    1   67 1    
     3    1   68 1    
     4    1   69 1    
     5    2    3 2    
     6    2    4 am   BACKBONE|DICT|INTERRES
     7    4    5 1    
     8    4   70 1    
     9    5    6 1    
    10    5   65 1    
    11    5   71 1    
    12    6    7 1    
    13    6   72 1    
    14    6   73 1    
    15    7    8 1    
    16    8    9 1    
    17    8   74 1    
    18    8   75 1    
    19    9   10 ar   
    20    9   14 ar   
    21   10   11 ar   
    22   10   76 1    
    23   11   12 ar   
    24   11   48 1    
    25   12   13 ar   
    26   12   77 1    
    27   13   14 ar   
    28   13   15 1    
    29   14   78 1    
    30   15   16 1    
    31   15   79 1    
    32   15   80 1    
    33   16   17 1    
    34   17   18 1    
    35   17   81 1    
    36   17   82 1    
    37   18   19 1    
    38   18   22 1    
    39   18   83 1    
    40   19   20 am   BACKBONE|DICT|INTERRES
    41   19   21 2    
    42   20   84 1    
    43   20   85 1    
    44   22   23 am   BACKBONE|DICT|INTERRES
    45   22   86 1    
    46   23   24 2    
    47   23   25 1    
    48   25   26 1    
    49   25   27 1    
    50   25   87 1    
    51   26   88 1    
    52   26   89 1    
    53   26   90 1    
    54   27   28 am   BACKBONE|DICT|INTERRES
    55   27   91 1    
    56   28   29 2    
    57   28   30 1    
    58   30   31 1    
    59   30   32 1    
    60   30   92 1    
    61   31   93 1    
    62   31   94 1    
    63   31   95 1    
    64   32   33 am   BACKBONE|DICT|INTERRES
    65   32   96 1    
    66   33   34 2    
    67   33   35 1    
    68   35   36 1    
    69   35   37 1    
    70   35   97 1    
    71   36   98 1    
    72   36   99 1    
    73   36  100 1    
    74   37   38 am   BACKBONE|DICT|INTERRES
    75   37  101 1    
    76   38   39 2    
    77   38   40 1    
    78   40   41 1    
    79   40   42 1    
    80   40  102 1    
    81   41  103 1    
    82   41  104 1    
    83   41  105 1    
    84   42   43 am   BACKBONE|DICT|INTERRES
    85   42  106 1    
    86   43   44 2    
    87   43   45 1    
    88   45   46 1    
    89   45   49 1    
    90   45  107 1    
    91   46   47 1    
    92   46  108 1    
    93   46  109 1    
    94   47   48 1    
    95   48  110 1    
    96   48  111 1    
    97   49   50 am   BACKBONE|DICT|INTERRES
    98   49  112 1    
    99   50   51 2    
   100   50   52 1    
   101   52   53 1    
   102   52   54 1    
   103   52  113 1    
   104   53  114 1    
   105   53  115 1    
   106   53  116 1    
   107   54   55 am   BACKBONE|DICT|INTERRES
   108   54  117 1    
   109   55   56 2    
   110   55   57 1    
   111   57   58 1    
   112   57   59 1    
   113   57  118 1    
   114   58  119 1    
   115   58  120 1    
   116   58  121 1    
   117   59   60 am   BACKBONE|DICT|INTERRES
   118   59  122 1    
   119   60   61 2    
   120   60   62 1    
   121   62   63 1    
   122   62   64 1    
   123   62  123 1    
   124   63  124 1    
   125   63  125 1    
   126   63  126 1    
   127   64   65 am   BACKBONE|DICT|INTERRES
   128   64  127 1    
   129   65   66 2    
@<TRIPOS>SUBSTRUCTURE
     1 UNK         1 GROUP             0       ****    0 ROOT    
