@<TRIPOS>MOLECULE
3R135
127   129    1
SMALL
USER_CHARGES


@<TRIPOS>ATOM
      1 CA        -78.2912   31.5501  -74.8979 C.3       0 UNK        -0.1998 
      2 C         -78.1817   30.0547  -74.6457 C.2       0 UNK         0.4909 
      3 O         -77.1436   29.4652  -74.9425 O.2       0 UNK        -0.5240 
      4 N         -79.2524   29.4385  -74.1282 N.am      1 UNK        -0.4739 
      5 CA        -79.3324   28.0329  -73.6959 C.3       1 UNK         0.0864 
      6 C6        -80.4888   27.8117  -72.6760 C.3       11 UNK        -0.0881 
      7 S7        -80.6004   29.0544  -71.3413 S.3       11 UNK        -0.2682 
      8 C8        -79.7997   28.1966  -69.9501 C.3       11 UNK         0.0289 
      9 C9        -78.2928   28.1320  -70.1359 C.ar      11 UNK        -0.0687 
     10 C10       -77.6599   26.9183  -70.4205 C.ar      11 UNK        -0.0823 
     11 C11       -76.2751   26.8724  -70.6109 C.ar      11 UNK        -0.0830 
     12 C12       -75.5267   28.0504  -70.5222 C.ar      11 UNK        -0.1021 
     13 C13       -76.1501   29.2677  -70.2357 C.ar      11 UNK        -0.0753 
     14 C14       -77.5313   29.2990  -70.0292 C.ar      11 UNK        -0.0933 
     15 C15       -75.3379   30.5509  -70.1698 C.3       11 UNK         0.0166 
     16 S16       -75.7493   31.6379  -71.5674 S.3       11 UNK        -0.2615 
     17 C17       -74.2702   32.7099  -71.6576 C.3       11 UNK        -0.0865 
     18 CA        -73.2697   32.3110  -72.7798 C.3       10 UNK         0.0862 
     19 C         -72.3285   31.1541  -72.3450 C.2       10 UNK         0.5551 
     20 N         -71.3021   31.4598  -71.5624 N.am      10 UNK        -0.7319 
     21 O         -72.5342   29.9883  -72.6728 O.2       10 UNK        -0.5018 
     22 N         -73.9739   32.0407  -74.0381 N.am      10 UNK        -0.4509 
     23 C         -73.4365   32.0340  -75.2600 C.2       10 UNK         0.4899 
     24 O         -72.2620   32.3139  -75.5062 O.2       10 UNK        -0.4839 
     25 CA        -74.4143   31.6635  -76.3845 C.3       9 UNK         0.0222 
     26 CB        -73.9451   32.1173  -77.7843 C.3       9 UNK        -0.1966 
     27 N         -74.7531   30.2368  -76.3448 N.am      9 UNK        -0.4218 
     28 C         -73.9897   29.1893  -76.6873 C.2       9 UNK         0.5020 
     29 O         -72.8391   29.2664  -77.1262 O.2       9 UNK        -0.5274 
     30 CA        -74.6987   27.8270  -76.5945 C.3       8 UNK         0.0270 
     31 CB        -75.7996   27.7287  -77.6657 C.3       8 UNK        -0.1976 
     32 N         -73.8104   26.6790  -76.7655 N.am      8 UNK        -0.4313 
     33 C         -72.8864   26.2493  -75.8993 C.2       8 UNK         0.5041 
     34 O         -72.5854   26.8380  -74.8606 O.2       8 UNK        -0.5577 
     35 CA        -72.2460   24.8855  -76.2346 C.3       7 UNK         0.0284 
     36 CB        -71.2065   24.4413  -75.1889 C.3       7 UNK        -0.1958 
     37 N         -73.2833   23.8546  -76.3360 N.am      7 UNK        -0.4454 
     38 C         -74.0668   23.6372  -77.3994 C.2       7 UNK         0.5089 
     39 O         -73.9051   24.1999  -78.4828 O.2       7 UNK        -0.5125 
     40 CA        -75.2869   22.7223  -77.2001 C.3       6 UNK         0.0408 
     41 CB        -74.9021   21.2307  -77.1894 C.3       6 UNK        -0.1791 
     42 N         -76.0950   23.1067  -76.0347 N.am      6 UNK        -0.4762 
     43 C         -75.8041   22.9915  -74.7299 C.2       6 UNK         0.5007 
     44 O         -74.7853   22.4458  -74.3033 O.2       6 UNK        -0.5032 
     45 CA        -76.8080   23.6133  -73.7370 C.3       5 UNK         0.0783 
     46 C46       -76.5503   25.1240  -73.5224 C.3       11 UNK        -0.0857 
     47 S47       -74.9998   25.4517  -72.6214 S.3       11 UNK        -0.2512 
     48 C48       -75.5769   25.5525  -70.8994 C.3       11 UNK         0.0225 
     49 N         -78.1861   23.3704  -74.1643 N.am      5 UNK        -0.4615 
     50 C         -78.8327   22.2091  -74.0005 C.2       4 UNK         0.5053 
     51 O         -78.3819   21.2556  -73.3654 O.2       4 UNK        -0.5105 
     52 CA        -80.2033   22.0798  -74.6857 C.3       4 UNK         0.0263 
     53 CB        -81.3132   22.6977  -73.8200 C.3       4 UNK        -0.1981 
     54 N         -80.2062   22.6942  -76.0155 N.am      4 UNK        -0.4224 
     55 C         -79.5455   22.1991  -77.0739 C.2       3 UNK         0.4895 
     56 O         -78.9601   21.1160  -77.0665 O.2       3 UNK        -0.5091 
     57 CA        -79.5164   23.0462  -78.3602 C.3       3 UNK         0.0250 
     58 CB        -80.5033   22.4827  -79.3958 C.3       3 UNK        -0.1996 
     59 N         -79.7970   24.4715  -78.1584 N.am      3 UNK        -0.4254 
     60 C         -79.0304   25.3234  -77.4635 C.2       2 UNK         0.5004 
     61 O         -77.9899   24.9839  -76.8982 O.2       2 UNK        -0.5226 
     62 CA        -79.5052   26.7916  -77.3823 C.3       2 UNK         0.0269 
     63 CB        -81.0073   26.9702  -77.7008 C.3       2 UNK        -0.1926 
     64 N         -79.2068   27.4573  -76.1059 N.am      2 UNK        -0.4687 
     65 C         -79.4724   27.0215  -74.8648 C.2       1 UNK         0.5165 
     66 O         -79.8719   25.8803  -74.6217 O.2       1 UNK        -0.5079 
     67 H67       -77.5645   32.0853  -74.2874 H         1 UNK         0.0900 
     68 H68       -78.0884   31.7719  -75.9452 H         1 UNK         0.0900 
     69 H69       -79.2826   31.9322  -74.6558 H         1 UNK         0.0900 
     70 H70       -80.0760   29.9855  -73.9213 H         1 UNK         0.2959 
     71 H71       -78.3917   27.7966  -73.1941 H         1 UNK         0.1079 
     72 H72       -81.4506   27.8255  -73.1930 H         1 UNK         0.0837 
     73 H73       -80.4125   26.8198  -72.2262 H         1 UNK         0.0837 
     74 H74       -80.2290   27.2005  -69.8315 H         1 UNK         0.0685 
     75 H75       -80.0225   28.7369  -69.0289 H         1 UNK         0.0685 
     76 H76       -78.2449   26.0118  -70.4964 H         1 UNK         0.1434 
     77 H77       -74.4581   28.0178  -70.6885 H         1 UNK         0.1329 
     78 H78       -78.0195   30.2406  -69.8172 H         1 UNK         0.1335 
     79 H79       -75.5384   31.0709  -69.2321 H         1 UNK         0.0680 
     80 H80       -74.2708   30.3243  -70.1808 H         1 UNK         0.0680 
     81 H81       -73.7808   32.7625  -70.6830 H         1 UNK         0.1032 
     82 H82       -74.6253   33.7234  -71.8501 H         1 UNK         0.1032 
     83 H83       -72.6295   33.1772  -72.9610 H         1 UNK         0.0461 
     84 H84       -70.6849   30.7234  -71.2574 H         1 UNK         0.3453 
     85 H85       -71.1217   32.4112  -71.2819 H         1 UNK         0.3453 
     86 H86       -74.9307   31.7387  -73.9239 H         1 UNK         0.2984 
     87 H87       -75.3454   32.1950  -76.1810 H         1 UNK         0.0554 
     88 H88       -73.8227   33.2004  -77.8161 H         1 UNK         0.0847 
     89 H89       -74.6706   31.8497  -78.5524 H         1 UNK         0.0847 
     90 H90       -72.9857   31.6806  -78.0621 H         1 UNK         0.0847 
     91 H91       -75.6631   30.0162  -75.9415 H         1 UNK         0.3141 
     92 H92       -75.1548   27.7447  -75.6053 H         1 UNK         0.0743 
     93 H93       -76.5755   28.4788  -77.5112 H         1 UNK         0.0784 
     94 H94       -75.3983   27.8753  -78.6694 H         1 UNK         0.0784 
     95 H95       -76.2853   26.7552  -77.6427 H         1 UNK         0.0784 
     96 H96       -73.9568   26.1163  -77.5954 H         1 UNK         0.3213 
     97 H97       -71.7369   24.9854  -77.1958 H         1 UNK         0.0855 
     98 H98       -71.6546   24.3233  -74.2011 H         1 UNK         0.0814 
     99 H99       -70.4051   25.1758  -75.0991 H         1 UNK         0.0814 
    100 H100      -70.7468   23.4922  -75.4646 H         1 UNK         0.0814 
    101 H101      -73.5447   23.3831  -75.4743 H         1 UNK         0.3105 
    102 H102      -75.9397   22.8787  -78.0604 H         1 UNK         0.0547 
    103 H103      -75.7824   20.5983  -77.0732 H         1 UNK         0.0837 
    104 H104      -74.2049   20.9870  -76.3878 H         1 UNK         0.0837 
    105 H105      -74.4223   20.9503  -78.1277 H         1 UNK         0.0837 
    106 H106      -76.9138   23.6672  -76.2709 H         1 UNK         0.3020 
    107 H107      -76.6629   23.1085  -72.7788 H         1 UNK         0.1245 
    108 H108      -77.3751   25.5647  -72.9628 H         1 UNK         0.0781 
    109 H109      -76.5205   25.6563  -74.4757 H         1 UNK         0.0781 
    110 H110      -74.7162   25.4532  -70.2364 H         1 UNK         0.0836 
    111 H111      -76.2279   24.7049  -70.6796 H         1 UNK         0.0836 
    112 H112      -78.6416   24.1173  -74.6782 H         1 UNK         0.3022 
    113 H113      -80.4185   21.0152  -74.8019 H         1 UNK         0.0747 
    114 H114      -82.2943   22.5575  -74.2740 H         1 UNK         0.0793 
    115 H115      -81.3428   22.2297  -72.8351 H         1 UNK         0.0793 
    116 H116      -81.1643   23.7668  -73.6666 H         1 UNK         0.0793 
    117 H117      -80.6465   23.5992  -76.1004 H         1 UNK         0.3047 
    118 H118      -78.5076   22.9650  -78.7708 H         1 UNK         0.0822 
    119 H119      -80.4259   23.0095  -80.3471 H         1 UNK         0.0807 
    120 H120      -81.5358   22.5566  -79.0519 H         1 UNK         0.0807 
    121 H121      -80.3014   21.4291  -79.5953 H         1 UNK         0.0807 
    122 H122      -80.6392   24.8283  -78.5865 H         1 UNK         0.2946 
    123 H123      -78.9370   27.3257  -78.1453 H         1 UNK         0.1144 
    124 H124      -81.2452   26.6657  -78.7206 H         1 UNK         0.0793 
    125 H125      -81.3035   28.0159  -77.6140 H         1 UNK         0.0793 
    126 H126      -81.6368   26.3948  -77.0203 H         1 UNK         0.0793 
    127 H127      -78.8056   28.3823  -76.1750 H         1 UNK         0.2896 
@<TRIPOS>BOND
     1    1    2 1    
     2    1   67 1    
     3    1   68 1    
     4    1   69 1    
     5    2    3 2    
     6    2    4 am   BACKBONE|DICT|INTERRES
     7    4    5 1    
     8    4   70 1    
     9    5    6 1    
    10    5   65 1    
    11    5   71 1    
    12    6    7 1    
    13    6   72 1    
    14    6   73 1    
    15    7    8 1    
    16    8    9 1    
    17    8   74 1    
    18    8   75 1    
    19    9   10 ar   
    20    9   14 ar   
    21   10   11 ar   
    22   10   76 1    
    23   11   12 ar   
    24   11   48 1    
    25   12   13 ar   
    26   12   77 1    
    27   13   14 ar   
    28   13   15 1    
    29   14   78 1    
    30   15   16 1    
    31   15   79 1    
    32   15   80 1    
    33   16   17 1    
    34   17   18 1    
    35   17   81 1    
    36   17   82 1    
    37   18   19 1    
    38   18   22 1    
    39   18   83 1    
    40   19   20 am   BACKBONE|DICT|INTERRES
    41   19   21 2    
    42   20   84 1    
    43   20   85 1    
    44   22   23 am   BACKBONE|DICT|INTERRES
    45   22   86 1    
    46   23   24 2    
    47   23   25 1    
    48   25   26 1    
    49   25   27 1    
    50   25   87 1    
    51   26   88 1    
    52   26   89 1    
    53   26   90 1    
    54   27   28 am   BACKBONE|DICT|INTERRES
    55   27   91 1    
    56   28   29 2    
    57   28   30 1    
    58   30   31 1    
    59   30   32 1    
    60   30   92 1    
    61   31   93 1    
    62   31   94 1    
    63   31   95 1    
    64   32   33 am   BACKBONE|DICT|INTERRES
    65   32   96 1    
    66   33   34 2    
    67   33   35 1    
    68   35   36 1    
    69   35   37 1    
    70   35   97 1    
    71   36   98 1    
    72   36   99 1    
    73   36  100 1    
    74   37   38 am   BACKBONE|DICT|INTERRES
    75   37  101 1    
    76   38   39 2    
    77   38   40 1    
    78   40   41 1    
    79   40   42 1    
    80   40  102 1    
    81   41  103 1    
    82   41  104 1    
    83   41  105 1    
    84   42   43 am   BACKBONE|DICT|INTERRES
    85   42  106 1    
    86   43   44 2    
    87   43   45 1    
    88   45   46 1    
    89   45   49 1    
    90   45  107 1    
    91   46   47 1    
    92   46  108 1    
    93   46  109 1    
    94   47   48 1    
    95   48  110 1    
    96   48  111 1    
    97   49   50 am   BACKBONE|DICT|INTERRES
    98   49  112 1    
    99   50   51 2    
   100   50   52 1    
   101   52   53 1    
   102   52   54 1    
   103   52  113 1    
   104   53  114 1    
   105   53  115 1    
   106   53  116 1    
   107   54   55 am   BACKBONE|DICT|INTERRES
   108   54  117 1    
   109   55   56 2    
   110   55   57 1    
   111   57   58 1    
   112   57   59 1    
   113   57  118 1    
   114   58  119 1    
   115   58  120 1    
   116   58  121 1    
   117   59   60 am   BACKBONE|DICT|INTERRES
   118   59  122 1    
   119   60   61 2    
   120   60   62 1    
   121   62   63 1    
   122   62   64 1    
   123   62  123 1    
   124   63  124 1    
   125   63  125 1    
   126   63  126 1    
   127   64   65 am   BACKBONE|DICT|INTERRES
   128   64  127 1    
   129   65   66 2    
@<TRIPOS>SUBSTRUCTURE
     1 UNK         1 GROUP             0       ****    0 ROOT    
