@<TRIPOS>MOLECULE
3R135
127   129    1
SMALL
USER_CHARGES


@<TRIPOS>ATOM
      1 CA        -84.3232   29.5699  -74.7846 C.3       0 UNK        -0.1998 
      2 C         -82.8108   29.5525  -74.9496 C.2       0 UNK         0.4909 
      3 O         -82.2921   30.1391  -75.9004 O.2       0 UNK        -0.5240 
      4 N         -82.1011   28.8930  -74.0258 N.am      1 UNK        -0.4739 
      5 CA        -80.6431   28.7266  -74.0505 C.3       1 UNK         0.0864 
      6 C6        -80.0971   28.2479  -72.6873 C.3       11 UNK        -0.0881 
      7 S7        -80.4354   29.4488  -71.3578 S.3       11 UNK        -0.2682 
      8 C8        -79.7075   28.5953  -69.9261 C.3       11 UNK         0.0289 
      9 C9        -78.1995   28.4520  -70.0641 C.ar      11 UNK        -0.0687 
     10 C10       -77.6340   27.2150  -70.3845 C.ar      11 UNK        -0.0823 
     11 C11       -76.2487   27.0813  -70.5111 C.ar      11 UNK        -0.0830 
     12 C12       -75.4268   28.1931  -70.3063 C.ar      11 UNK        -0.1021 
     13 C13       -75.9831   29.4404  -70.0050 C.ar      11 UNK        -0.0753 
     14 C14       -77.3699   29.5606  -69.8765 C.ar      11 UNK        -0.0933 
     15 C15       -75.0951   30.6639  -69.8183 C.3       11 UNK         0.0166 
     16 S16       -74.0206   30.9948  -71.2538 S.3       11 UNK        -0.2615 
     17 C17       -75.2086   31.0656  -72.6452 C.3       11 UNK        -0.0865 
     18 CA        -75.0093   29.9047  -73.6652 C.3       10 UNK         0.0862 
     19 C         -76.1067   29.9137  -74.7730 C.2       10 UNK         0.5551 
     20 N         -75.7669   29.8625  -76.0555 N.am      10 UNK        -0.7319 
     21 O         -77.2966   29.9308  -74.4667 O.2       10 UNK        -0.5018 
     22 N         -73.6214   29.7976  -74.1562 N.am      10 UNK        -0.4509 
     23 C         -72.9183   30.7227  -74.8209 C.2       10 UNK         0.4899 
     24 O         -73.3646   31.8223  -75.1469 O.2       10 UNK        -0.4839 
     25 CA        -71.4783   30.3592  -75.2271 C.3       9 UNK         0.0222 
     26 CB        -70.4819   30.6794  -74.0955 C.3       9 UNK        -0.1966 
     27 N         -71.3241   28.9859  -75.7306 N.am      9 UNK        -0.4218 
     28 C         -71.3996   27.8238  -75.0679 C.2       9 UNK         0.5020 
     29 O         -71.6126   27.7326  -73.8577 O.2       9 UNK        -0.5274 
     30 CA        -71.2987   26.5531  -75.9310 C.3       8 UNK         0.0270 
     31 CB        -70.8329   25.3339  -75.1151 C.3       8 UNK        -0.1976 
     32 N         -72.5915   26.2590  -76.5553 N.am      8 UNK        -0.4313 
     33 C         -73.1309   26.9663  -77.5607 C.2       8 UNK         0.5041 
     34 O         -72.5324   27.8813  -78.1318 O.2       8 UNK        -0.5577 
     35 CA        -74.5833   26.6444  -77.9673 C.3       7 UNK         0.0284 
     36 CB        -74.9154   27.0590  -79.4159 C.3       7 UNK        -0.1958 
     37 N         -74.9895   25.2607  -77.7099 N.am      7 UNK        -0.4454 
     38 C         -74.4737   24.1408  -78.2349 C.2       7 UNK         0.5089 
     39 O         -73.5890   24.1280  -79.0923 O.2       7 UNK        -0.5125 
     40 CA        -75.0369   22.8096  -77.6864 C.3       6 UNK         0.0408 
     41 CB        -74.0615   21.6333  -77.8983 C.3       6 UNK        -0.1791 
     42 N         -75.4605   22.8587  -76.2765 N.am      6 UNK        -0.4762 
     43 C         -74.7285   23.2632  -75.2237 C.2       6 UNK         0.5007 
     44 O         -73.5920   23.7234  -75.3288 O.2       6 UNK        -0.5032 
     45 CA        -75.3840   23.1362  -73.8363 C.3       5 UNK         0.0783 
     46 C46       -74.6469   23.8962  -72.6976 C.3       11 UNK        -0.0857 
     47 S47       -75.0593   25.6735  -72.5795 S.3       11 UNK        -0.2512 
     48 C48       -75.6406   25.7330  -70.8556 C.3       11 UNK         0.0225 
     49 N         -76.8146   23.4375  -73.9211 N.am      5 UNK        -0.4615 
     50 C         -77.7640   22.8717  -73.1673 C.2       4 UNK         0.5053 
     51 O         -77.5299   22.0602  -72.2714 O.2       4 UNK        -0.5105 
     52 CA        -79.2280   23.2553  -73.4685 C.3       4 UNK         0.0263 
     53 CB        -79.6669   24.4027  -72.5449 C.3       4 UNK        -0.1981 
     54 N         -79.4730   23.6497  -74.8604 N.am      4 UNK        -0.4224 
     55 C         -79.1991   22.9132  -75.9479 C.2       3 UNK         0.4895 
     56 O         -78.8057   21.7474  -75.9060 O.2       3 UNK        -0.5091 
     57 CA        -79.3209   23.6027  -77.3196 C.3       3 UNK         0.0250 
     58 CB        -80.6096   23.1573  -78.0289 C.3       3 UNK        -0.1996 
     59 N         -79.2732   25.0698  -77.2947 N.am      3 UNK        -0.4254 
     60 C         -78.3104   25.8388  -76.7649 C.2       2 UNK         0.5004 
     61 O         -77.3331   25.3964  -76.1576 O.2       2 UNK        -0.5226 
     62 CA        -78.4615   27.3600  -76.9362 C.3       2 UNK         0.0269 
     63 CB        -79.2286   27.7615  -78.2155 C.3       2 UNK        -0.1926 
     64 N         -79.0436   28.0207  -75.7628 N.am      2 UNK        -0.4687 
     65 C         -80.2203   27.7611  -75.1759 C.2       1 UNK         0.5165 
     66 O         -80.9514   26.8128  -75.4756 O.2       1 UNK        -0.5079 
     67 H67       -84.6799   30.5961  -74.7015 H         1 UNK         0.0900 
     68 H68       -84.7998   29.1118  -75.6509 H         1 UNK         0.0900 
     69 H69       -84.6426   29.0269  -73.8952 H         1 UNK         0.0900 
     70 H70       -82.5792   28.4236  -73.2707 H         1 UNK         0.2959 
     71 H71       -80.2028   29.7029  -74.2690 H         1 UNK         0.1079 
     72 H72       -79.0164   28.1025  -72.7470 H         1 UNK         0.0837 
     73 H73       -80.5310   27.2855  -72.4113 H         1 UNK         0.0837 
     74 H74       -80.1833   27.6208  -69.8048 H         1 UNK         0.0685 
     75 H75       -79.9362   29.1622  -69.0224 H         1 UNK         0.0685 
     76 H76       -78.2736   26.3567  -70.5364 H         1 UNK         0.1434 
     77 H77       -74.3544   28.0936  -70.4072 H         1 UNK         0.1329 
     78 H78       -77.8108   30.5196  -69.6408 H         1 UNK         0.1335 
     79 H79       -75.6956   31.5540  -69.6238 H         1 UNK         0.0680 
     80 H80       -74.4697   30.5160  -68.9371 H         1 UNK         0.0680 
     81 H81       -76.2265   31.0553  -72.2518 H         1 UNK         0.1032 
     82 H82       -75.0976   32.0316  -73.1398 H         1 UNK         0.1032 
     83 H83       -75.1801   28.9722  -73.1263 H         1 UNK         0.0461 
     84 H84       -76.4822   29.9111  -76.7614 H         1 UNK         0.3453 
     85 H85       -74.7949   29.8927  -76.3158 H         1 UNK         0.3453 
     86 H86       -73.1373   28.9356  -73.9222 H         1 UNK         0.2984 
     87 H87       -71.2232   31.0017  -76.0715 H         1 UNK         0.0554 
     88 H88       -70.5286   31.7357  -73.8275 H         1 UNK         0.0847 
     89 H89       -69.4562   30.4656  -74.3955 H         1 UNK         0.0847 
     90 H90       -70.6935   30.1109  -73.1893 H         1 UNK         0.0847 
     91 H91       -71.2918   28.9067  -76.7426 H         1 UNK         0.3141 
     92 H92       -70.5602   26.7281  -76.7164 H         1 UNK         0.0743 
     93 H93       -69.8550   25.5155  -74.6677 H         1 UNK         0.0784 
     94 H94       -70.7455   24.4466  -75.7425 H         1 UNK         0.0784 
     95 H95       -71.5235   25.1008  -74.3033 H         1 UNK         0.0784 
     96 H96       -73.1233   25.4970  -76.1430 H         1 UNK         0.3213 
     97 H97       -75.1967   27.2553  -77.3058 H         1 UNK         0.0855 
     98 H98       -74.2903   26.5347  -80.1392 H         1 UNK         0.0814 
     99 H99       -74.7558   28.1277  -79.5645 H         1 UNK         0.0814 
    100 H100      -75.9576   26.8526  -79.6591 H         1 UNK         0.0814 
    101 H101      -75.7287   25.1517  -77.0171 H         1 UNK         0.3105 
    102 H102      -75.9367   22.6026  -78.2673 H         1 UNK         0.0547 
    103 H103      -74.4839   20.6961  -77.5363 H         1 UNK         0.0837 
    104 H104      -73.1159   21.7977  -77.3805 H         1 UNK         0.0837 
    105 H105      -73.8340   21.4949  -78.9560 H         1 UNK         0.0837 
    106 H106      -76.3889   22.5035  -76.0880 H         1 UNK         0.3020 
    107 H107      -75.2858   22.0715  -73.6108 H         1 UNK         0.1245 
    108 H108      -73.5634   23.7945  -72.7817 H         1 UNK         0.0781 
    109 H109      -74.8939   23.4123  -71.7519 H         1 UNK         0.0781 
    110 H110      -74.8054   25.5255  -70.1850 H         1 UNK         0.0836 
    111 H111      -76.3720   24.9389  -70.6945 H         1 UNK         0.0836 
    112 H112      -77.0770   24.1257  -74.6216 H         1 UNK         0.3022 
    113 H113      -79.8477   22.3810  -73.2604 H         1 UNK         0.0747 
    114 H114      -80.7175   24.6543  -72.6921 H         1 UNK         0.0793 
    115 H115      -79.5431   24.1296  -71.4960 H         1 UNK         0.0793 
    116 H116      -79.0749   25.3017  -72.7208 H         1 UNK         0.0793 
    117 H117      -79.8011   24.5943  -75.0120 H         1 UNK         0.3047 
    118 H118      -78.4703   23.2681  -77.9165 H         1 UNK         0.0822 
    119 H119      -80.6558   23.5404  -79.0486 H         1 UNK         0.0807 
    120 H120      -81.4995   23.5003  -77.4993 H         1 UNK         0.0807 
    121 H121      -80.6669   22.0695  -78.0923 H         1 UNK         0.0807 
    122 H122      -80.0585   25.5443  -77.7171 H         1 UNK         0.2946 
    123 H123      -77.4486   27.7480  -77.0339 H         1 UNK         0.1144 
    124 H124      -79.1615   28.8360  -78.3865 H         1 UNK         0.0793 
    125 H125      -80.2879   27.5074  -78.1646 H         1 UNK         0.0793 
    126 H126      -78.8106   27.2725  -79.0968 H         1 UNK         0.0793 
    127 H127      -78.4804   28.7718  -75.3681 H         1 UNK         0.2896 
@<TRIPOS>BOND
     1    1    2 1    
     2    1   67 1    
     3    1   68 1    
     4    1   69 1    
     5    2    3 2    
     6    2    4 am   BACKBONE|DICT|INTERRES
     7    4    5 1    
     8    4   70 1    
     9    5    6 1    
    10    5   65 1    
    11    5   71 1    
    12    6    7 1    
    13    6   72 1    
    14    6   73 1    
    15    7    8 1    
    16    8    9 1    
    17    8   74 1    
    18    8   75 1    
    19    9   10 ar   
    20    9   14 ar   
    21   10   11 ar   
    22   10   76 1    
    23   11   12 ar   
    24   11   48 1    
    25   12   13 ar   
    26   12   77 1    
    27   13   14 ar   
    28   13   15 1    
    29   14   78 1    
    30   15   16 1    
    31   15   79 1    
    32   15   80 1    
    33   16   17 1    
    34   17   18 1    
    35   17   81 1    
    36   17   82 1    
    37   18   19 1    
    38   18   22 1    
    39   18   83 1    
    40   19   20 am   BACKBONE|DICT|INTERRES
    41   19   21 2    
    42   20   84 1    
    43   20   85 1    
    44   22   23 am   BACKBONE|DICT|INTERRES
    45   22   86 1    
    46   23   24 2    
    47   23   25 1    
    48   25   26 1    
    49   25   27 1    
    50   25   87 1    
    51   26   88 1    
    52   26   89 1    
    53   26   90 1    
    54   27   28 am   BACKBONE|DICT|INTERRES
    55   27   91 1    
    56   28   29 2    
    57   28   30 1    
    58   30   31 1    
    59   30   32 1    
    60   30   92 1    
    61   31   93 1    
    62   31   94 1    
    63   31   95 1    
    64   32   33 am   BACKBONE|DICT|INTERRES
    65   32   96 1    
    66   33   34 2    
    67   33   35 1    
    68   35   36 1    
    69   35   37 1    
    70   35   97 1    
    71   36   98 1    
    72   36   99 1    
    73   36  100 1    
    74   37   38 am   BACKBONE|DICT|INTERRES
    75   37  101 1    
    76   38   39 2    
    77   38   40 1    
    78   40   41 1    
    79   40   42 1    
    80   40  102 1    
    81   41  103 1    
    82   41  104 1    
    83   41  105 1    
    84   42   43 am   BACKBONE|DICT|INTERRES
    85   42  106 1    
    86   43   44 2    
    87   43   45 1    
    88   45   46 1    
    89   45   49 1    
    90   45  107 1    
    91   46   47 1    
    92   46  108 1    
    93   46  109 1    
    94   47   48 1    
    95   48  110 1    
    96   48  111 1    
    97   49   50 am   BACKBONE|DICT|INTERRES
    98   49  112 1    
    99   50   51 2    
   100   50   52 1    
   101   52   53 1    
   102   52   54 1    
   103   52  113 1    
   104   53  114 1    
   105   53  115 1    
   106   53  116 1    
   107   54   55 am   BACKBONE|DICT|INTERRES
   108   54  117 1    
   109   55   56 2    
   110   55   57 1    
   111   57   58 1    
   112   57   59 1    
   113   57  118 1    
   114   58  119 1    
   115   58  120 1    
   116   58  121 1    
   117   59   60 am   BACKBONE|DICT|INTERRES
   118   59  122 1    
   119   60   61 2    
   120   60   62 1    
   121   62   63 1    
   122   62   64 1    
   123   62  123 1    
   124   63  124 1    
   125   63  125 1    
   126   63  126 1    
   127   64   65 am   BACKBONE|DICT|INTERRES
   128   64  127 1    
   129   65   66 2    
@<TRIPOS>SUBSTRUCTURE
     1 UNK         1 GROUP             0       ****    0 ROOT    
