@<TRIPOS>MOLECULE
3R135
127   129    1
SMALL
USER_CHARGES


@<TRIPOS>ATOM
      1 CA        -81.9246   30.6858  -77.8729 C.3       0 UNK        -0.1998 
      2 C         -81.1470   29.4626  -77.4101 C.2       0 UNK         0.4909 
      3 O         -80.9087   28.5525  -78.2049 O.2       0 UNK        -0.5240 
      4 N         -80.7430   29.4404  -76.1343 N.am      1 UNK        -0.4739 
      5 CA        -80.0197   28.3312  -75.5020 C.3       1 UNK         0.0864 
      6 C6        -79.4022   28.7466  -74.1437 C.3       11 UNK        -0.0881 
      7 S7        -78.2839   30.1843  -74.2616 S.3       11 UNK        -0.2682 
      8 C8        -78.1704   30.7042  -72.5167 C.3       11 UNK         0.0289 
      9 C9        -77.3206   29.7460  -71.6931 C.ar      11 UNK        -0.0687 
     10 C10       -77.8938   28.6003  -71.1352 C.ar      11 UNK        -0.0823 
     11 C11       -77.1055   27.6840  -70.4348 C.ar      11 UNK        -0.0830 
     12 C12       -75.7506   27.9527  -70.2318 C.ar      11 UNK        -0.1021 
     13 C13       -75.1581   29.0876  -70.7957 C.ar      11 UNK        -0.0753 
     14 C14       -75.9543   29.9858  -71.5141 C.ar      11 UNK        -0.0933 
     15 C15       -73.6559   29.3405  -70.6812 C.3       11 UNK         0.0166 
     16 S16       -72.6222   27.8347  -70.7586 S.3       11 UNK        -0.2615 
     17 C17       -73.1661   27.0442  -72.3155 C.3       11 UNK        -0.0865 
     18 CA        -72.1292   27.1894  -73.4607 C.3       10 UNK         0.0862 
     19 C         -72.4137   26.2161  -74.6443 C.2       10 UNK         0.5551 
     20 N         -72.0917   26.5746  -75.8817 N.am      10 UNK        -0.7319 
     21 O         -72.9258   25.1174  -74.4477 O.2       10 UNK        -0.5018 
     22 N         -72.0380   28.5847  -73.9164 N.am      10 UNK        -0.4509 
     23 C         -70.9678   29.3848  -73.8323 C.2       10 UNK         0.4899 
     24 O         -69.9103   29.0549  -73.2948 O.2       10 UNK        -0.4839 
     25 CA        -71.0632   30.7830  -74.4804 C.3       9 UNK         0.0222 
     26 CB        -70.0440   30.9167  -75.6255 C.3       9 UNK        -0.1966 
     27 N         -72.3973   31.0862  -75.0059 N.am      9 UNK        -0.4218 
     28 C         -73.4113   31.5985  -74.2958 C.2       9 UNK         0.5020 
     29 O         -73.3000   32.0026  -73.1386 O.2       9 UNK        -0.5274 
     30 CA        -74.7909   31.6661  -74.9826 C.3       8 UNK         0.0270 
     31 CB        -75.1169   33.1089  -75.4011 C.3       8 UNK        -0.1976 
     32 N         -74.9501   30.7791  -76.1431 N.am      8 UNK        -0.4313 
     33 C         -74.8829   29.4417  -76.1076 C.2       8 UNK         0.5041 
     34 O         -74.6343   28.7929  -75.0885 O.2       8 UNK        -0.5577 
     35 CA        -75.0495   28.7160  -77.4458 C.3       7 UNK         0.0284 
     36 CB        -73.8394   28.9643  -78.3685 C.3       7 UNK        -0.1958 
     37 N         -75.1869   27.2884  -77.1814 N.am      7 UNK        -0.4454 
     38 C         -75.7479   26.3927  -77.9984 C.2       7 UNK         0.5089 
     39 O         -76.1841   26.6724  -79.1161 O.2       7 UNK        -0.5125 
     40 CA        -75.8353   24.9334  -77.5097 C.3       6 UNK         0.0408 
     41 CB        -74.7522   24.0776  -78.1858 C.3       6 UNK        -0.1791 
     42 N         -75.7532   24.7344  -76.0584 N.am      6 UNK        -0.4762 
     43 C         -76.6184   25.2133  -75.1556 C.2       6 UNK         0.5007 
     44 O         -77.5177   26.0102  -75.4252 O.2       6 UNK        -0.5032 
     45 CA        -76.4979   24.6490  -73.7271 C.3       5 UNK         0.0783 
     46 C46       -77.2139   25.5481  -72.6904 C.3       11 UNK        -0.0857 
     47 S47       -76.9831   24.9687  -70.9719 S.3       11 UNK        -0.2512 
     48 C48       -77.6875   26.3480  -70.0002 C.3       11 UNK         0.0225 
     49 N         -77.0295   23.2852  -73.7122 N.am      5 UNK        -0.4615 
     50 C         -76.3463   22.1828  -74.0420 C.2       4 UNK         0.5053 
     51 O         -75.1676   22.1847  -74.3960 O.2       4 UNK        -0.5105 
     52 CA        -77.1204   20.8577  -73.9729 C.3       4 UNK         0.0263 
     53 CB        -77.3031   20.4070  -72.5137 C.3       4 UNK        -0.1981 
     54 N         -78.4281   20.9661  -74.6241 N.am      4 UNK        -0.4224 
     55 C         -78.6198   20.8755  -75.9483 C.2       3 UNK         0.4895 
     56 O         -77.7287   20.6177  -76.7583 O.2       3 UNK        -0.5091 
     57 CA        -80.0518   21.1267  -76.4544 C.3       3 UNK         0.0250 
     58 CB        -80.9261   19.8757  -76.2667 C.3       3 UNK        -0.1996 
     59 N         -80.6884   22.2790  -75.8064 N.am      3 UNK        -0.4254 
     60 C         -80.2857   23.5470  -75.9716 C.2       2 UNK         0.5004 
     61 O         -79.3751   23.8724  -76.7358 O.2       2 UNK        -0.5226 
     62 CA        -81.0177   24.6206  -75.1500 C.3       2 UNK         0.0269 
     63 CB        -81.0749   24.2741  -73.6475 C.3       2 UNK        -0.1926 
     64 N         -80.3470   25.9084  -75.3245 N.am      2 UNK        -0.4687 
     65 C         -80.9396   27.1050  -75.3086 C.2       1 UNK         0.5165 
     66 O         -82.1471   27.2642  -75.1058 O.2       1 UNK        -0.5079 
     67 H67       -82.0489   31.4164  -77.0737 H         1 UNK         0.0900 
     68 H68       -81.4042   31.1715  -78.6979 H         1 UNK         0.0900 
     69 H69       -82.9147   30.3913  -78.2200 H         1 UNK         0.0900 
     70 H70       -80.9700   30.2123  -75.5245 H         1 UNK         0.2959 
     71 H71       -79.2075   28.0403  -76.1729 H         1 UNK         0.1079 
     72 H72       -78.8270   27.9169  -73.7308 H         1 UNK         0.0837 
     73 H73       -80.1897   28.9717  -73.4217 H         1 UNK         0.0837 
     74 H74       -79.1706   30.7893  -72.0892 H         1 UNK         0.0685 
     75 H75       -77.7393   31.7058  -72.4800 H         1 UNK         0.0685 
     76 H76       -78.9432   28.3950  -71.2936 H         1 UNK         0.1434 
     77 H77       -75.1457   27.2354  -69.6948 H         1 UNK         0.1329 
     78 H78       -75.5034   30.8641  -71.9536 H         1 UNK         0.1335 
     79 H79       -73.3243   30.0074  -71.4763 H         1 UNK         0.0680 
     80 H80       -73.4576   29.8556  -69.7408 H         1 UNK         0.0680 
     81 H81       -73.3373   25.9930  -72.0772 H         1 UNK         0.1032 
     82 H82       -74.1337   27.4345  -72.6352 H         1 UNK         0.1032 
     83 H83       -71.1621   26.8671  -73.0718 H         1 UNK         0.0461 
     84 H84       -72.2522   25.9325  -76.6397 H         1 UNK         0.3453 
     85 H85       -71.6378   27.4564  -76.0508 H         1 UNK         0.3453 
     86 H86       -72.8843   28.9183  -74.3715 H         1 UNK         0.2984 
     87 H87       -70.8061   31.5148  -73.7117 H         1 UNK         0.0554 
     88 H88       -69.0275   30.7464  -75.2678 H         1 UNK         0.0847 
     89 H89       -70.0658   31.9156  -76.0618 H         1 UNK         0.0847 
     90 H90       -70.2324   30.1970  -76.4231 H         1 UNK         0.0847 
     91 H91       -72.5847   30.8057  -75.9569 H         1 UNK         0.3141 
     92 H92       -75.5269   31.3564  -74.2399 H         1 UNK         0.0743 
     93 H93       -74.4346   33.4704  -76.1715 H         1 UNK         0.0784 
     94 H94       -76.1344   33.1902  -75.7842 H         1 UNK         0.0784 
     95 H95       -75.0394   33.7891  -74.5516 H         1 UNK         0.0784 
     96 H96       -75.1492   31.2297  -77.0252 H         1 UNK         0.3213 
     97 H97       -75.9631   29.0815  -77.9199 H         1 UNK         0.0855 
     98 H98       -72.9098   28.6193  -77.9149 H         1 UNK         0.0814 
     99 H99       -73.7207   30.0241  -78.5957 H         1 UNK         0.0814 
    100 H100      -73.9539   28.4474  -79.3214 H         1 UNK         0.0814 
    101 H101      -74.9053   27.0112  -76.2483 H         1 UNK         0.3105 
    102 H102      -76.8092   24.5545  -77.8262 H         1 UNK         0.0547 
    103 H103      -74.8786   23.0204  -77.9510 H         1 UNK         0.0837 
    104 H104      -73.7509   24.3749  -77.8730 H         1 UNK         0.0837 
    105 H105      -74.7973   24.1732  -79.2716 H         1 UNK         0.0837 
    106 H106      -75.0572   24.0739  -75.7318 H         1 UNK         0.3020 
    107 H107      -75.4360   24.6256  -73.4697 H         1 UNK         0.1245 
    108 H108      -78.2836   25.6172  -72.8925 H         1 UNK         0.0781 
    109 H109      -76.8174   26.5606  -72.7785 H         1 UNK         0.0781 
    110 H110      -77.4808   26.1854  -68.9415 H         1 UNK         0.0836 
    111 H111      -78.7732   26.3412  -70.1085 H         1 UNK         0.0836 
    112 H112      -77.9944   23.1919  -73.4399 H         1 UNK         0.3022 
    113 H113      -76.5291   20.0964  -74.4871 H         1 UNK         0.0747 
    114 H114      -77.7930   19.4347  -72.4587 H         1 UNK         0.0793 
    115 H115      -76.3383   20.3105  -72.0136 H         1 UNK         0.0793 
    116 H116      -77.8984   21.1157  -71.9365 H         1 UNK         0.0793 
    117 H117      -79.2244   21.1571  -74.0345 H         1 UNK         0.3047 
    118 H118      -79.9891   21.3366  -77.5247 H         1 UNK         0.0822 
    119 H119      -81.9146   20.0136  -76.7054 H         1 UNK         0.0807 
    120 H120      -81.0582   19.6238  -75.2138 H         1 UNK         0.0807 
    121 H121      -80.4760   19.0097  -76.7545 H         1 UNK         0.0807 
    122 H122      -81.4614   22.0845  -75.1862 H         1 UNK         0.2946 
    123 H123      -82.0341   24.6880  -75.5448 H         1 UNK         0.1144 
    124 H124      -81.5303   25.0807  -73.0724 H         1 UNK         0.0793 
    125 H125      -80.0830   24.0932  -73.2348 H         1 UNK         0.0793 
    126 H126      -81.6745   23.3822  -73.4643 H         1 UNK         0.0793 
    127 H127      -79.3487   25.8494  -75.5296 H         1 UNK         0.2896 
@<TRIPOS>BOND
     1    1    2 1    
     2    1   67 1    
     3    1   68 1    
     4    1   69 1    
     5    2    3 2    
     6    2    4 am   BACKBONE|DICT|INTERRES
     7    4    5 1    
     8    4   70 1    
     9    5    6 1    
    10    5   65 1    
    11    5   71 1    
    12    6    7 1    
    13    6   72 1    
    14    6   73 1    
    15    7    8 1    
    16    8    9 1    
    17    8   74 1    
    18    8   75 1    
    19    9   10 ar   
    20    9   14 ar   
    21   10   11 ar   
    22   10   76 1    
    23   11   12 ar   
    24   11   48 1    
    25   12   13 ar   
    26   12   77 1    
    27   13   14 ar   
    28   13   15 1    
    29   14   78 1    
    30   15   16 1    
    31   15   79 1    
    32   15   80 1    
    33   16   17 1    
    34   17   18 1    
    35   17   81 1    
    36   17   82 1    
    37   18   19 1    
    38   18   22 1    
    39   18   83 1    
    40   19   20 am   BACKBONE|DICT|INTERRES
    41   19   21 2    
    42   20   84 1    
    43   20   85 1    
    44   22   23 am   BACKBONE|DICT|INTERRES
    45   22   86 1    
    46   23   24 2    
    47   23   25 1    
    48   25   26 1    
    49   25   27 1    
    50   25   87 1    
    51   26   88 1    
    52   26   89 1    
    53   26   90 1    
    54   27   28 am   BACKBONE|DICT|INTERRES
    55   27   91 1    
    56   28   29 2    
    57   28   30 1    
    58   30   31 1    
    59   30   32 1    
    60   30   92 1    
    61   31   93 1    
    62   31   94 1    
    63   31   95 1    
    64   32   33 am   BACKBONE|DICT|INTERRES
    65   32   96 1    
    66   33   34 2    
    67   33   35 1    
    68   35   36 1    
    69   35   37 1    
    70   35   97 1    
    71   36   98 1    
    72   36   99 1    
    73   36  100 1    
    74   37   38 am   BACKBONE|DICT|INTERRES
    75   37  101 1    
    76   38   39 2    
    77   38   40 1    
    78   40   41 1    
    79   40   42 1    
    80   40  102 1    
    81   41  103 1    
    82   41  104 1    
    83   41  105 1    
    84   42   43 am   BACKBONE|DICT|INTERRES
    85   42  106 1    
    86   43   44 2    
    87   43   45 1    
    88   45   46 1    
    89   45   49 1    
    90   45  107 1    
    91   46   47 1    
    92   46  108 1    
    93   46  109 1    
    94   47   48 1    
    95   48  110 1    
    96   48  111 1    
    97   49   50 am   BACKBONE|DICT|INTERRES
    98   49  112 1    
    99   50   51 2    
   100   50   52 1    
   101   52   53 1    
   102   52   54 1    
   103   52  113 1    
   104   53  114 1    
   105   53  115 1    
   106   53  116 1    
   107   54   55 am   BACKBONE|DICT|INTERRES
   108   54  117 1    
   109   55   56 2    
   110   55   57 1    
   111   57   58 1    
   112   57   59 1    
   113   57  118 1    
   114   58  119 1    
   115   58  120 1    
   116   58  121 1    
   117   59   60 am   BACKBONE|DICT|INTERRES
   118   59  122 1    
   119   60   61 2    
   120   60   62 1    
   121   62   63 1    
   122   62   64 1    
   123   62  123 1    
   124   63  124 1    
   125   63  125 1    
   126   63  126 1    
   127   64   65 am   BACKBONE|DICT|INTERRES
   128   64  127 1    
   129   65   66 2    
@<TRIPOS>SUBSTRUCTURE
     1 UNK         1 GROUP             0       ****    0 ROOT    
