@<TRIPOS>MOLECULE
3R135
127   129    1
SMALL
USER_CHARGES


@<TRIPOS>ATOM
      1 CA        -84.3271   28.3872  -72.1736 C.3       0 UNK        -0.1998 
      2 C         -83.6321   28.3483  -73.5263 C.2       0 UNK         0.4909 
      3 O         -84.3026   28.3024  -74.5581 O.2       0 UNK        -0.5240 
      4 N         -82.2927   28.3704  -73.5274 N.am      1 UNK        -0.4739 
      5 CA        -81.4531   28.3219  -74.7325 C.3       1 UNK         0.0864 
      6 C6        -79.9884   28.7323  -74.4370 C.3       11 UNK        -0.0881 
      7 S7        -79.8374   30.4798  -73.9225 S.3       11 UNK        -0.2682 
      8 C8        -79.8565   30.3981  -72.0996 C.3       11 UNK         0.0289 
      9 C9        -78.6089   29.7369  -71.5327 C.ar      11 UNK        -0.0687 
     10 C10       -78.6406   28.3997  -71.1295 C.ar      11 UNK        -0.0823 
     11 C11       -77.4930   27.7821  -70.6257 C.ar      11 UNK        -0.0830 
     12 C12       -76.3096   28.5187  -70.5082 C.ar      11 UNK        -0.1021 
     13 C13       -76.2633   29.8595  -70.9062 C.ar      11 UNK        -0.0753 
     14 C14       -77.4226   30.4646  -71.4056 C.ar      11 UNK        -0.0933 
     15 C15       -74.9638   30.6487  -70.7868 C.3       11 UNK         0.0166 
     16 S16       -74.5143   31.4885  -72.3414 S.3       11 UNK        -0.2615 
     17 C17       -72.8181   32.0581  -71.9715 C.3       11 UNK        -0.0865 
     18 CA        -71.7564   31.4241  -72.9136 C.3       10 UNK         0.0862 
     19 C         -70.3434   32.0374  -72.6921 C.2       10 UNK         0.5551 
     20 N         -69.2796   31.2460  -72.6162 N.am      10 UNK        -0.7319 
     21 O         -70.2037   33.2549  -72.6028 O.2       10 UNK        -0.5018 
     22 N         -71.7682   29.9519  -72.8345 N.am      10 UNK        -0.4509 
     23 C         -72.1166   29.1275  -73.8283 C.2       10 UNK         0.4899 
     24 O         -72.4335   29.5000  -74.9611 O.2       10 UNK        -0.4839 
     25 CA        -72.1342   27.6341  -73.4691 C.3       9 UNK         0.0222 
     26 CB        -73.2952   27.3274  -72.5048 C.3       9 UNK        -0.1966 
     27 N         -72.3025   26.8265  -74.6762 N.am      9 UNK        -0.4218 
     28 C         -71.3378   26.1306  -75.2890 C.2       9 UNK         0.5020 
     29 O         -70.1809   26.0439  -74.8737 O.2       9 UNK        -0.5274 
     30 CA        -71.7260   25.3915  -76.5819 C.3       8 UNK         0.0270 
     31 CB        -72.3473   24.0240  -76.2541 C.3       8 UNK        -0.1976 
     32 N         -72.6517   26.1471  -77.4270 N.am      8 UNK        -0.4313 
     33 C         -72.3502   27.2475  -78.1262 C.2       8 UNK         0.5041 
     34 O         -71.2203   27.7371  -78.1615 O.2       8 UNK        -0.5577 
     35 CA        -73.4789   27.9284  -78.9315 C.3       7 UNK         0.0284 
     36 CB        -73.3972   27.5513  -80.4244 C.3       7 UNK        -0.1958 
     37 N         -74.8396   27.7341  -78.4015 N.am      7 UNK        -0.4454 
     38 C         -75.5635   26.6084  -78.3285 C.2       7 UNK         0.5089 
     39 O         -75.1858   25.5129  -78.7462 O.2       7 UNK        -0.5125 
     40 CA        -76.9011   26.7109  -77.5725 C.3       6 UNK         0.0408 
     41 CB        -78.0662   26.2343  -78.4535 C.3       6 UNK        -0.1791 
     42 N         -76.8937   25.9426  -76.3219 N.am      6 UNK        -0.4762 
     43 C         -75.9768   26.0436  -75.3470 C.2       6 UNK         0.5007 
     44 O         -75.0184   26.8132  -75.3960 O.2       6 UNK        -0.5032 
     45 CA        -76.1318   25.1584  -74.0999 C.3       5 UNK         0.0783 
     46 C46       -76.9057   25.9168  -72.9972 C.3       11 UNK        -0.0857 
     47 S47       -76.5058   25.2661  -71.3410 S.3       11 UNK        -0.2512 
     48 C48       -77.5317   26.3065  -70.2472 C.3       11 UNK         0.0225 
     49 N         -76.7652   23.8786  -74.4241 N.am      5 UNK        -0.4615 
     50 C         -76.1488   22.6899  -74.3968 C.2       4 UNK         0.5053 
     51 O         -74.9614   22.5408  -74.1077 O.2       4 UNK        -0.5105 
     52 CA        -76.9912   21.4425  -74.7287 C.3       4 UNK         0.0263 
     53 CB        -77.4543   20.7544  -73.4342 C.3       4 UNK        -0.1981 
     54 N         -78.1620   21.7299  -75.5600 N.am      4 UNK        -0.4224 
     55 C         -78.1127   22.0708  -76.8550 C.2       3 UNK         0.4895 
     56 O         -77.0759   22.0872  -77.5179 O.2       3 UNK        -0.5091 
     57 CA        -79.4382   22.4794  -77.5276 C.3       3 UNK         0.0250 
     58 CB        -80.0170   21.2970  -78.3219 C.3       3 UNK        -0.1996 
     59 N         -80.4759   23.0068  -76.6286 N.am      3 UNK        -0.4254 
     60 C         -80.3422   24.0461  -75.7923 C.2       2 UNK         0.5004 
     61 O         -79.2732   24.6224  -75.5792 O.2       2 UNK        -0.5226 
     62 CA        -81.6045   24.4699  -75.0224 C.3       2 UNK         0.0269 
     63 CB        -81.7857   23.5844  -73.7785 C.3       2 UNK        -0.1926 
     64 N         -81.5672   25.8717  -74.5956 N.am      2 UNK        -0.4687 
     65 C         -81.5040   26.9365  -75.4105 C.2       1 UNK         0.5165 
     66 O         -81.5105   26.8628  -76.6403 O.2       1 UNK        -0.5079 
     67 H67       -84.9377   27.4946  -72.0402 H         1 UNK         0.0900 
     68 H68       -84.9790   29.2583  -72.1122 H         1 UNK         0.0900 
     69 H69       -83.6158   28.4380  -71.3495 H         1 UNK         0.0900 
     70 H70       -81.8001   28.4222  -72.6491 H         1 UNK         0.2959 
     71 H71       -81.8639   29.0348  -75.4516 H         1 UNK         0.1079 
     72 H72       -79.5372   28.0741  -73.6949 H         1 UNK         0.0837 
     73 H73       -79.3786   28.6175  -75.3359 H         1 UNK         0.0837 
     74 H74       -79.9306   31.4145  -71.7101 H         1 UNK         0.0685 
     75 H75       -80.7553   29.8844  -71.7588 H         1 UNK         0.0685 
     76 H76       -79.5561   27.8327  -71.2243 H         1 UNK         0.1434 
     77 H77       -75.4206   28.0363  -70.1252 H         1 UNK         0.1329 
     78 H78       -77.3968   31.5007  -71.7146 H         1 UNK         0.1335 
     79 H79       -74.1453   29.9886  -70.4960 H         1 UNK         0.0680 
     80 H80       -75.0673   31.3904  -69.9937 H         1 UNK         0.0680 
     81 H81       -72.5726   31.8537  -70.9280 H         1 UNK         0.1032 
     82 H82       -72.8145   33.1452  -72.0710 H         1 UNK         0.1032 
     83 H83       -72.0172   31.7281  -73.9287 H         1 UNK         0.0461 
     84 H84       -68.3689   31.6556  -72.4785 H         1 UNK         0.3453 
     85 H85       -69.3732   30.2488  -72.7240 H         1 UNK         0.3453 
     86 H86       -71.5086   29.5612  -71.9403 H         1 UNK         0.2984 
     87 H87       -71.1935   27.3851  -72.9741 H         1 UNK         0.0554 
     88 H88       -73.3797   26.2588  -72.3072 H         1 UNK         0.0847 
     89 H89       -74.2510   27.6723  -72.9013 H         1 UNK         0.0847 
     90 H90       -73.1508   27.8193  -71.5428 H         1 UNK         0.0847 
     91 H91       -73.2204   26.8865  -75.1147 H         1 UNK         0.3141 
     92 H92       -70.8113   25.2220  -77.1539 H         1 UNK         0.0743 
     93 H93       -73.2855   24.1274  -75.7074 H         1 UNK         0.0784 
     94 H94       -72.5500   23.4519  -77.1597 H         1 UNK         0.0784 
     95 H95       -71.6751   23.4263  -75.6368 H         1 UNK         0.0784 
     96 H96       -73.5985   25.7940  -77.5118 H         1 UNK         0.3213 
     97 H97       -73.2921   29.0011  -78.8570 H         1 UNK         0.0855 
     98 H98       -72.4217   27.8123  -80.8369 H         1 UNK         0.0814 
     99 H99       -74.1483   28.0812  -81.0100 H         1 UNK         0.0814 
    100 H100      -73.5376   26.4821  -80.5849 H         1 UNK         0.0814 
    101 H101      -75.2300   28.5526  -77.9542 H         1 UNK         0.3105 
    102 H102      -77.0828   27.7547  -77.3089 H         1 UNK         0.0547 
    103 H103      -78.1347   26.8295  -79.3648 H         1 UNK         0.0837 
    104 H104      -77.9393   25.1941  -78.7539 H         1 UNK         0.0837 
    105 H105      -79.0216   26.3218  -77.9356 H         1 UNK         0.0837 
    106 H106      -77.6911   25.3300  -76.1686 H         1 UNK         0.3020 
    107 H107      -75.1134   24.9878  -73.7424 H         1 UNK         0.1245 
    108 H108      -77.9837   25.8683  -73.1636 H         1 UNK         0.0781 
    109 H109      -76.6418   26.9762  -73.0047 H         1 UNK         0.0781 
    110 H110      -77.1868   26.1882  -69.2191 H         1 UNK         0.0836 
    111 H111      -78.5550   25.9285  -70.2697 H         1 UNK         0.0836 
    112 H112      -77.7377   23.9279  -74.7129 H         1 UNK         0.3022 
    113 H113      -76.3479   20.7485  -75.2741 H         1 UNK         0.0747 
    114 H114      -77.9905   19.8289  -73.6451 H         1 UNK         0.0793 
    115 H115      -76.6020   20.4965  -72.8037 H         1 UNK         0.0793 
    116 H116      -78.1099   21.3986  -72.8465 H         1 UNK         0.0793 
    117 H117      -79.0603   21.7328  -75.1000 H         1 UNK         0.3047 
    118 H118      -79.1998   23.2743  -78.2357 H         1 UNK         0.0822 
    119 H119      -80.8860   21.5975  -78.9076 H         1 UNK         0.0807 
    120 H120      -80.3186   20.4794  -77.6659 H         1 UNK         0.0807 
    121 H121      -79.2816   20.8981  -79.0223 H         1 UNK         0.0807 
    122 H122      -81.3858   22.5755  -76.7105 H         1 UNK         0.2946 
    123 H123      -82.4673   24.3468  -75.6809 H         1 UNK         0.1144 
    124 H124      -81.8623   22.5307  -74.0503 H         1 UNK         0.0793 
    125 H125      -82.6966   23.8413  -73.2374 H         1 UNK         0.0793 
    126 H126      -80.9463   23.6826  -73.0882 H         1 UNK         0.0793 
    127 H127      -81.5602   26.0383  -73.6009 H         1 UNK         0.2896 
@<TRIPOS>BOND
     1    1    2 1    
     2    1   67 1    
     3    1   68 1    
     4    1   69 1    
     5    2    3 2    
     6    2    4 am   BACKBONE|DICT|INTERRES
     7    4    5 1    
     8    4   70 1    
     9    5    6 1    
    10    5   65 1    
    11    5   71 1    
    12    6    7 1    
    13    6   72 1    
    14    6   73 1    
    15    7    8 1    
    16    8    9 1    
    17    8   74 1    
    18    8   75 1    
    19    9   10 ar   
    20    9   14 ar   
    21   10   11 ar   
    22   10   76 1    
    23   11   12 ar   
    24   11   48 1    
    25   12   13 ar   
    26   12   77 1    
    27   13   14 ar   
    28   13   15 1    
    29   14   78 1    
    30   15   16 1    
    31   15   79 1    
    32   15   80 1    
    33   16   17 1    
    34   17   18 1    
    35   17   81 1    
    36   17   82 1    
    37   18   19 1    
    38   18   22 1    
    39   18   83 1    
    40   19   20 am   BACKBONE|DICT|INTERRES
    41   19   21 2    
    42   20   84 1    
    43   20   85 1    
    44   22   23 am   BACKBONE|DICT|INTERRES
    45   22   86 1    
    46   23   24 2    
    47   23   25 1    
    48   25   26 1    
    49   25   27 1    
    50   25   87 1    
    51   26   88 1    
    52   26   89 1    
    53   26   90 1    
    54   27   28 am   BACKBONE|DICT|INTERRES
    55   27   91 1    
    56   28   29 2    
    57   28   30 1    
    58   30   31 1    
    59   30   32 1    
    60   30   92 1    
    61   31   93 1    
    62   31   94 1    
    63   31   95 1    
    64   32   33 am   BACKBONE|DICT|INTERRES
    65   32   96 1    
    66   33   34 2    
    67   33   35 1    
    68   35   36 1    
    69   35   37 1    
    70   35   97 1    
    71   36   98 1    
    72   36   99 1    
    73   36  100 1    
    74   37   38 am   BACKBONE|DICT|INTERRES
    75   37  101 1    
    76   38   39 2    
    77   38   40 1    
    78   40   41 1    
    79   40   42 1    
    80   40  102 1    
    81   41  103 1    
    82   41  104 1    
    83   41  105 1    
    84   42   43 am   BACKBONE|DICT|INTERRES
    85   42  106 1    
    86   43   44 2    
    87   43   45 1    
    88   45   46 1    
    89   45   49 1    
    90   45  107 1    
    91   46   47 1    
    92   46  108 1    
    93   46  109 1    
    94   47   48 1    
    95   48  110 1    
    96   48  111 1    
    97   49   50 am   BACKBONE|DICT|INTERRES
    98   49  112 1    
    99   50   51 2    
   100   50   52 1    
   101   52   53 1    
   102   52   54 1    
   103   52  113 1    
   104   53  114 1    
   105   53  115 1    
   106   53  116 1    
   107   54   55 am   BACKBONE|DICT|INTERRES
   108   54  117 1    
   109   55   56 2    
   110   55   57 1    
   111   57   58 1    
   112   57   59 1    
   113   57  118 1    
   114   58  119 1    
   115   58  120 1    
   116   58  121 1    
   117   59   60 am   BACKBONE|DICT|INTERRES
   118   59  122 1    
   119   60   61 2    
   120   60   62 1    
   121   62   63 1    
   122   62   64 1    
   123   62  123 1    
   124   63  124 1    
   125   63  125 1    
   126   63  126 1    
   127   64   65 am   BACKBONE|DICT|INTERRES
   128   64  127 1    
   129   65   66 2    
@<TRIPOS>SUBSTRUCTURE
     1 UNK         1 GROUP             0       ****    0 ROOT    
