@<TRIPOS>MOLECULE
3R135
127   129    1
SMALL
USER_CHARGES


@<TRIPOS>ATOM
      1 CA        -84.8003   29.9047  -76.3451 C.3       0 UNK        -0.1998 
      2 C         -83.3197   29.5663  -76.4328 C.2       0 UNK         0.4909 
      3 O         -82.6901   29.8381  -77.4555 O.2       0 UNK        -0.5240 
      4 N         -82.7603   28.9793  -75.3660 N.am      1 UNK        -0.4739 
      5 CA        -81.3525   28.5690  -75.2698 C.3       1 UNK         0.0864 
      6 C6        -80.9649   28.2196  -73.8103 C.3       11 UNK        -0.0881 
      7 S7        -80.8699   29.7200  -72.7813 S.3       11 UNK        -0.2682 
      8 C8        -80.4993   29.0290  -71.1359 C.3       11 UNK         0.0289 
      9 C9        -79.0550   28.5614  -70.9781 C.ar      11 UNK        -0.0687 
     10 C10       -78.7832   27.2575  -70.5509 C.ar      11 UNK        -0.0823 
     11 C11       -77.4683   26.8424  -70.3145 C.ar      11 UNK        -0.0830 
     12 C12       -76.4136   27.7304  -70.5488 C.ar      11 UNK        -0.1021 
     13 C13       -76.6692   29.0391  -70.9735 C.ar      11 UNK        -0.0753 
     14 C14       -77.9916   29.4494  -71.1784 C.ar      11 UNK        -0.0933 
     15 C15       -75.5244   30.0285  -71.1510 C.3       11 UNK         0.0166 
     16 S16       -75.2532   30.4555  -72.8982 S.3       11 UNK        -0.2615 
     17 C17       -73.8304   31.5943  -72.7713 C.3       11 UNK        -0.0865 
     18 CA        -72.4741   30.9981  -73.2441 C.3       10 UNK         0.0862 
     19 C         -71.8594   29.9796  -72.2403 C.2       10 UNK         0.5551 
     20 N         -71.5788   30.4126  -71.0170 N.am      10 UNK        -0.7319 
     21 O         -71.6278   28.8122  -72.5485 O.2       10 UNK        -0.5018 
     22 N         -72.5583   30.4919  -74.6219 N.am      10 UNK        -0.4509 
     23 C         -71.5258   30.3858  -75.4660 C.2       10 UNK         0.4899 
     24 O         -70.3755   30.7418  -75.2018 O.2       10 UNK        -0.4839 
     25 CA        -71.8615   29.7996  -76.8453 C.3       9 UNK         0.0222 
     26 CB        -70.9073   30.2775  -77.9618 C.3       9 UNK        -0.1966 
     27 N         -71.9701   28.3387  -76.7949 N.am      9 UNK        -0.4218 
     28 C         -70.9934   27.4254  -76.6595 C.2       9 UNK         0.5020 
     29 O         -69.7983   27.7071  -76.5620 O.2       9 UNK        -0.5274 
     30 CA        -71.3929   25.9307  -76.6393 C.3       8 UNK         0.0270 
     31 CB        -70.9997   25.2802  -75.3019 C.3       8 UNK        -0.1976 
     32 N         -72.8161   25.6796  -76.8786 N.am      8 UNK        -0.4313 
     33 C         -73.4638   25.8477  -78.0401 C.2       8 UNK         0.5041 
     34 O         -72.9026   26.1100  -79.1041 O.2       8 UNK        -0.5577 
     35 CA        -75.0036   25.7665  -77.9964 C.3       7 UNK         0.0284 
     36 CB        -75.4845   24.3995  -78.5053 C.3       7 UNK        -0.1958 
     37 N         -75.5697   26.0236  -76.6648 N.am      7 UNK        -0.4454 
     38 C         -75.4254   27.1651  -75.9735 C.2       7 UNK         0.5089 
     39 O         -74.8379   28.1565  -76.4075 O.2       7 UNK        -0.5125 
     40 CA        -75.9563   27.1841  -74.5371 C.3       6 UNK         0.0408 
     41 CB        -77.4135   27.6418  -74.4971 C.3       6 UNK        -0.1791 
     42 N         -75.8383   25.8785  -73.8937 N.am      6 UNK        -0.4762 
     43 C         -74.7554   25.4698  -73.2194 C.2       6 UNK         0.5007 
     44 O         -73.7554   26.1639  -73.0460 O.2       6 UNK        -0.5032 
     45 CA        -74.7708   24.0327  -72.6626 C.3       5 UNK         0.0783 
     46 C46       -75.2500   23.9987  -71.1896 C.3       11 UNK        -0.0857 
     47 S47       -77.0612   24.1707  -70.9926 S.3       11 UNK        -0.2512 
     48 C48       -77.2051   25.4640  -69.7226 C.3       11 UNK         0.0225 
     49 N         -75.5245   23.1010  -73.5059 N.am      5 UNK        -0.4615 
     50 C         -75.2064   22.7589  -74.7601 C.2       4 UNK         0.5053 
     51 O         -74.1860   23.1370  -75.3350 O.2       4 UNK        -0.5105 
     52 CA        -76.2221   21.8788  -75.5116 C.3       4 UNK         0.0263 
     53 CB        -75.8773   20.3923  -75.3296 C.3       4 UNK        -0.1981 
     54 N         -77.6209   22.1069  -75.1235 N.am      4 UNK        -0.4224 
     55 C         -78.2725   23.2745  -75.2260 C.2       3 UNK         0.4895 
     56 O         -77.7454   24.3215  -75.6094 O.2       3 UNK        -0.5091 
     57 CA        -79.7370   23.2763  -74.7532 C.3       3 UNK         0.0250 
     58 CB        -79.8110   23.5792  -73.2486 C.3       3 UNK        -0.1996 
     59 N         -80.5646   24.2521  -75.4633 N.am      3 UNK        -0.4254 
     60 C         -80.8929   24.1971  -76.7614 C.2       2 UNK         0.5004 
     61 O         -80.5407   23.2897  -77.5167 O.2       2 UNK        -0.5226 
     62 CA        -81.8018   25.3163  -77.3096 C.3       2 UNK         0.0269 
     63 CB        -83.2018   24.7652  -77.6303 C.3       2 UNK        -0.1926 
     64 N         -81.9461   26.4693  -76.4117 N.am      2 UNK        -0.4687 
     65 C         -81.0093   27.4117  -76.2317 C.2       1 UNK         0.5165 
     66 O         -79.9193   27.4006  -76.8026 O.2       1 UNK        -0.5079 
     67 H67       -85.3497   29.3913  -77.1339 H         1 UNK         0.0900 
     68 H68       -85.2300   29.6123  -75.3870 H         1 UNK         0.0900 
     69 H69       -84.9477   30.9773  -76.4694 H         1 UNK         0.0900 
     70 H70       -83.3223   28.8103  -74.5437 H         1 UNK         0.2959 
     71 H71       -80.7405   29.4152  -75.5918 H         1 UNK         0.1079 
     72 H72       -81.6841   27.5252  -73.3719 H         1 UNK         0.0837 
     73 H73       -80.0002   27.7194  -73.7603 H         1 UNK         0.0837 
     74 H74       -80.6926   29.7995  -70.3885 H         1 UNK         0.0685 
     75 H75       -81.2001   28.2196  -70.9249 H         1 UNK         0.0685 
     76 H76       -79.5990   26.5730  -70.3617 H         1 UNK         0.1434 
     77 H77       -75.3957   27.4131  -70.3672 H         1 UNK         0.1329 
     78 H78       -78.1937   30.4657  -71.4881 H         1 UNK         0.1335 
     79 H79       -75.7448   30.9365  -70.5875 H         1 UNK         0.0680 
     80 H80       -74.6003   29.6221  -70.7367 H         1 UNK         0.0680 
     81 H81       -74.0631   32.4648  -73.3865 H         1 UNK         0.1032 
     82 H82       -73.7554   31.9844  -71.7550 H         1 UNK         0.1032 
     83 H83       -71.7684   31.8312  -73.2657 H         1 UNK         0.0461 
     84 H84       -71.1766   29.7683  -70.3543 H         1 UNK         0.3453 
     85 H85       -71.7369   31.3712  -70.7477 H         1 UNK         0.3453 
     86 H86       -73.4599   30.1274  -74.8970 H         1 UNK         0.2984 
     87 H87       -72.8568   30.1599  -77.1114 H         1 UNK         0.0554 
     88 H88       -70.9371   31.3637  -78.0538 H         1 UNK         0.0847 
     89 H89       -71.1892   29.8616  -78.9290 H         1 UNK         0.0847 
     90 H90       -69.8702   30.0028  -77.7681 H         1 UNK         0.0847 
     91 H91       -72.9284   28.0011  -76.8045 H         1 UNK         0.3141 
     92 H92       -70.8306   25.4389  -77.4357 H         1 UNK         0.0743 
     93 H93       -71.4934   25.7662  -74.4596 H         1 UNK         0.0784 
     94 H94       -71.2600   24.2215  -75.2801 H         1 UNK         0.0784 
     95 H95       -69.9246   25.3526  -75.1324 H         1 UNK         0.0784 
     96 H96       -73.3664   25.4074  -76.0747 H         1 UNK         0.3213 
     97 H97       -75.3915   26.5376  -78.6653 H         1 UNK         0.0855 
     98 H98       -75.0277   23.5833  -77.9467 H         1 UNK         0.0814 
     99 H99       -75.2147   24.2613  -79.5530 H         1 UNK         0.0814 
    100 H100      -76.5680   24.2995  -78.4317 H         1 UNK         0.0814 
    101 H101      -76.1363   25.2875  -76.2531 H         1 UNK         0.3105 
    102 H102      -75.3614   27.9056  -73.9792 H         1 UNK         0.0547 
    103 H103      -77.5378   28.6132  -74.9775 H         1 UNK         0.0837 
    104 H104      -78.0683   26.9326  -75.0020 H         1 UNK         0.0837 
    105 H105      -77.7490   27.7423  -73.4668 H         1 UNK         0.0837 
    106 H106      -76.6029   25.2302  -74.0376 H         1 UNK         0.3020 
    107 H107      -73.7306   23.6981  -72.6757 H         1 UNK         0.1245 
    108 H108      -74.7283   24.7558  -70.6010 H         1 UNK         0.0781 
    109 H109      -74.9677   23.0435  -70.7445 H         1 UNK         0.0781 
    110 H110      -76.3171   25.4806  -69.0893 H         1 UNK         0.0836 
    111 H111      -78.0280   25.1957  -69.0583 H         1 UNK         0.0836 
    112 H112      -76.3857   22.7527  -73.1108 H         1 UNK         0.3022 
    113 H113      -76.1410   22.1156  -76.5730 H         1 UNK         0.0747 
    114 H114      -76.5233   19.7568  -75.9356 H         1 UNK         0.0793 
    115 H115      -74.8496   20.1903  -75.6357 H         1 UNK         0.0793 
    116 H116      -75.9750   20.0784  -74.2895 H         1 UNK         0.0793 
    117 H117      -78.1251   21.3021  -74.7790 H         1 UNK         0.3047 
    118 H118      -80.1622   22.2868  -74.9343 H         1 UNK         0.0822 
    119 H119      -79.2534   22.8405  -72.6717 H         1 UNK         0.0807 
    120 H120      -80.8392   23.5553  -72.8871 H         1 UNK         0.0807 
    121 H121      -79.3956   24.5606  -73.0135 H         1 UNK         0.0807 
    122 H122      -80.8900   25.0438  -74.9312 H         1 UNK         0.2946 
    123 H123      -81.3491   25.6608  -78.2425 H         1 UNK         0.1144 
    124 H124      -83.8315   25.5258  -78.0925 H         1 UNK         0.0793 
    125 H125      -83.7093   24.4057  -76.7343 H         1 UNK         0.0793 
    126 H126      -83.1433   23.9292  -78.3289 H         1 UNK         0.0793 
    127 H127      -82.8250   26.5636  -75.9230 H         1 UNK         0.2896 
@<TRIPOS>BOND
     1    1    2 1    
     2    1   67 1    
     3    1   68 1    
     4    1   69 1    
     5    2    3 2    
     6    2    4 am   BACKBONE|DICT|INTERRES
     7    4    5 1    
     8    4   70 1    
     9    5    6 1    
    10    5   65 1    
    11    5   71 1    
    12    6    7 1    
    13    6   72 1    
    14    6   73 1    
    15    7    8 1    
    16    8    9 1    
    17    8   74 1    
    18    8   75 1    
    19    9   10 ar   
    20    9   14 ar   
    21   10   11 ar   
    22   10   76 1    
    23   11   12 ar   
    24   11   48 1    
    25   12   13 ar   
    26   12   77 1    
    27   13   14 ar   
    28   13   15 1    
    29   14   78 1    
    30   15   16 1    
    31   15   79 1    
    32   15   80 1    
    33   16   17 1    
    34   17   18 1    
    35   17   81 1    
    36   17   82 1    
    37   18   19 1    
    38   18   22 1    
    39   18   83 1    
    40   19   20 am   BACKBONE|DICT|INTERRES
    41   19   21 2    
    42   20   84 1    
    43   20   85 1    
    44   22   23 am   BACKBONE|DICT|INTERRES
    45   22   86 1    
    46   23   24 2    
    47   23   25 1    
    48   25   26 1    
    49   25   27 1    
    50   25   87 1    
    51   26   88 1    
    52   26   89 1    
    53   26   90 1    
    54   27   28 am   BACKBONE|DICT|INTERRES
    55   27   91 1    
    56   28   29 2    
    57   28   30 1    
    58   30   31 1    
    59   30   32 1    
    60   30   92 1    
    61   31   93 1    
    62   31   94 1    
    63   31   95 1    
    64   32   33 am   BACKBONE|DICT|INTERRES
    65   32   96 1    
    66   33   34 2    
    67   33   35 1    
    68   35   36 1    
    69   35   37 1    
    70   35   97 1    
    71   36   98 1    
    72   36   99 1    
    73   36  100 1    
    74   37   38 am   BACKBONE|DICT|INTERRES
    75   37  101 1    
    76   38   39 2    
    77   38   40 1    
    78   40   41 1    
    79   40   42 1    
    80   40  102 1    
    81   41  103 1    
    82   41  104 1    
    83   41  105 1    
    84   42   43 am   BACKBONE|DICT|INTERRES
    85   42  106 1    
    86   43   44 2    
    87   43   45 1    
    88   45   46 1    
    89   45   49 1    
    90   45  107 1    
    91   46   47 1    
    92   46  108 1    
    93   46  109 1    
    94   47   48 1    
    95   48  110 1    
    96   48  111 1    
    97   49   50 am   BACKBONE|DICT|INTERRES
    98   49  112 1    
    99   50   51 2    
   100   50   52 1    
   101   52   53 1    
   102   52   54 1    
   103   52  113 1    
   104   53  114 1    
   105   53  115 1    
   106   53  116 1    
   107   54   55 am   BACKBONE|DICT|INTERRES
   108   54  117 1    
   109   55   56 2    
   110   55   57 1    
   111   57   58 1    
   112   57   59 1    
   113   57  118 1    
   114   58  119 1    
   115   58  120 1    
   116   58  121 1    
   117   59   60 am   BACKBONE|DICT|INTERRES
   118   59  122 1    
   119   60   61 2    
   120   60   62 1    
   121   62   63 1    
   122   62   64 1    
   123   62  123 1    
   124   63  124 1    
   125   63  125 1    
   126   63  126 1    
   127   64   65 am   BACKBONE|DICT|INTERRES
   128   64  127 1    
   129   65   66 2    
@<TRIPOS>SUBSTRUCTURE
     1 UNK         1 GROUP             0       ****    0 ROOT    
