@<TRIPOS>MOLECULE
3R135
127   129    1
SMALL
USER_CHARGES


@<TRIPOS>ATOM
      1 CA        -78.1025   30.9551  -75.3568 C.3       0 UNK        -0.1998 
      2 C         -78.5382   29.5709  -74.9030 C.2       0 UNK         0.4909 
      3 O         -77.9039   28.5810  -75.2675 O.2       0 UNK        -0.5240 
      4 N         -79.6322   29.4959  -74.1301 N.am      1 UNK        -0.4739 
      5 CA        -80.1875   28.2752  -73.5196 C.3       1 UNK         0.0864 
      6 C6        -81.4389   28.5679  -72.6437 C.3       11 UNK        -0.0881 
      7 S7        -81.2987   30.0563  -71.5874 S.3       11 UNK        -0.2682 
      8 C8        -80.8103   29.3648  -69.9746 C.3       11 UNK         0.0289 
      9 C9        -79.4312   28.7268  -70.0303 C.ar      11 UNK        -0.0687 
     10 C10       -79.2883   27.3457  -69.8714 C.ar      11 UNK        -0.0823 
     11 C11       -78.0305   26.7462  -69.9847 C.ar      11 UNK        -0.0830 
     12 C12       -76.9091   27.5411  -70.2340 C.ar      11 UNK        -0.1021 
     13 C13       -77.0394   28.9231  -70.3897 C.ar      11 UNK        -0.0753 
     14 C14       -78.3009   29.5133  -70.2750 C.ar      11 UNK        -0.0933 
     15 C15       -75.8274   29.7630  -70.7539 C.3       11 UNK         0.0166 
     16 S16       -75.6580   29.8042  -72.5587 S.3       11 UNK        -0.2615 
     17 C17       -74.0815   30.6886  -72.7945 C.3       11 UNK        -0.0865 
     18 CA        -73.9311   31.2039  -74.2523 C.3       10 UNK         0.0862 
     19 C         -72.6137   32.0119  -74.4470 C.2       10 UNK         0.5551 
     20 N         -71.7764   31.7089  -75.4331 N.am      10 UNK        -0.7319 
     21 O         -72.3488   32.9418  -73.6891 O.2       10 UNK        -0.5018 
     22 N         -74.1199   30.1172  -75.2254 N.am      10 UNK        -0.4509 
     23 C         -74.5833   30.2583  -76.4715 C.2       10 UNK         0.4899 
     24 O         -74.9439   31.3324  -76.9555 O.2       10 UNK        -0.4839 
     25 CA        -74.6266   28.9678  -77.3121 C.3       9 UNK         0.0222 
     26 CB        -74.8348   29.2369  -78.8174 C.3       9 UNK        -0.1966 
     27 N         -73.4518   28.1117  -77.0910 N.am      9 UNK        -0.4218 
     28 C         -72.1638   28.4340  -77.3071 C.2       9 UNK         0.5020 
     29 O         -71.7991   29.5379  -77.7151 O.2       9 UNK        -0.5274 
     30 CA        -71.0812   27.3840  -76.9784 C.3       8 UNK         0.0270 
     31 CB        -70.2208   27.8591  -75.7942 C.3       8 UNK        -0.1976 
     32 N         -71.6103   26.0548  -76.6678 N.am      8 UNK        -0.4313 
     33 C         -72.1755   25.2133  -77.5438 C.2       8 UNK         0.5041 
     34 O         -72.2067   25.4127  -78.7584 O.2       8 UNK        -0.5577 
     35 CA        -72.8479   23.9507  -76.9668 C.3       7 UNK         0.0284 
     36 CB        -71.9702   22.7134  -77.2169 C.3       7 UNK        -0.1958 
     37 N         -73.1838   24.0206  -75.5356 N.am      7 UNK        -0.4454 
     38 C         -73.9917   24.9259  -74.9669 C.2       7 UNK         0.5089 
     39 O         -74.5226   25.8526  -75.5792 O.2       7 UNK        -0.5125 
     40 CA        -74.2471   24.7652  -73.4672 C.3       6 UNK         0.0408 
     41 CB        -74.3471   26.1216  -72.7467 C.3       6 UNK        -0.1791 
     42 N         -75.4927   24.0265  -73.3057 N.am      6 UNK        -0.4762 
     43 C         -75.7316   23.0888  -72.3801 C.2       6 UNK         0.5007 
     44 O         -74.9171   22.7648  -71.5147 O.2       6 UNK        -0.5032 
     45 CA        -77.1037   22.3812  -72.4239 C.3       5 UNK         0.0783 
     46 C46       -77.9914   22.7451  -71.2061 C.3       11 UNK        -0.0857 
     47 S47       -78.6924   24.4286  -71.2991 S.3       11 UNK        -0.2512 
     48 C48       -77.8892   25.2368  -69.8827 C.3       11 UNK         0.0225 
     49 N         -77.8153   22.6096  -73.6859 N.am      5 UNK        -0.4615 
     50 C         -77.6303   21.9107  -74.8108 C.2       4 UNK         0.5053 
     51 O         -76.8229   20.9888  -74.9244 O.2       4 UNK        -0.5105 
     52 CA        -78.4956   22.3231  -76.0064 C.3       4 UNK         0.0263 
     53 CB        -79.9782   21.9936  -75.7599 C.3       4 UNK        -0.1981 
     54 N         -78.3581   23.7504  -76.2941 N.am      4 UNK        -0.4224 
     55 C         -77.4092   24.2801  -77.0794 C.2       3 UNK         0.4895 
     56 O         -76.5031   23.6151  -77.5832 O.2       3 UNK        -0.5091 
     57 CA        -77.4836   25.7975  -77.3636 C.3       3 UNK         0.0250 
     58 CB        -77.0427   26.1466  -78.7996 C.3       3 UNK        -0.1996 
     59 N         -78.7800   26.4150  -77.0540 N.am      3 UNK        -0.4254 
     60 C         -79.9859   26.1151  -77.5661 C.2       2 UNK         0.5004 
     61 O         -80.1567   25.2903  -78.4644 O.2       2 UNK        -0.5226 
     62 CA        -81.2166   26.8349  -76.9720 C.3       2 UNK         0.0269 
     63 CB        -82.3916   25.8614  -76.7369 C.3       2 UNK        -0.1926 
     64 N         -80.9410   27.6172  -75.7571 N.am      2 UNK        -0.4687 
     65 C         -80.5166   27.1786  -74.5590 C.2       1 UNK         0.5165 
     66 O         -80.3361   25.9914  -74.2841 O.2       1 UNK        -0.5079 
     67 H67       -78.8381   31.7182  -75.1041 H         1 UNK         0.0900 
     68 H68       -77.1589   31.2220  -74.8827 H         1 UNK         0.0900 
     69 H69       -77.9549   30.9688  -76.4364 H         1 UNK         0.0900 
     70 H70       -80.0979   30.3487  -73.8520 H         1 UNK         0.2959 
     71 H71       -79.4048   27.8715  -72.8729 H         1 UNK         0.1079 
     72 H72       -81.6707   27.7029  -72.0192 H         1 UNK         0.0837 
     73 H73       -82.3165   28.7209  -73.2753 H         1 UNK         0.0837 
     74 H74       -80.8024   30.1660  -69.2344 H         1 UNK         0.0685 
     75 H75       -81.5649   28.6487  -69.6452 H         1 UNK         0.0685 
     76 H76       -80.1587   26.7283  -69.6951 H         1 UNK         0.1434 
     77 H77       -75.9361   27.0838  -70.3389 H         1 UNK         0.1329 
     78 H78       -78.4110   30.5795  -70.4191 H         1 UNK         0.1335 
     79 H79       -74.9245   29.3430  -70.3076 H         1 UNK         0.0680 
     80 H80       -75.9318   30.7784  -70.3684 H         1 UNK         0.0680 
     81 H81       -74.0400   31.5209  -72.0892 H         1 UNK         0.1032 
     82 H82       -73.2604   30.0187  -72.5331 H         1 UNK         0.1032 
     83 H83       -74.7327   31.9271  -74.4137 H         1 UNK         0.0461 
     84 H84       -70.9326   32.2485  -75.5423 H         1 UNK         0.3453 
     85 H85       -71.9906   30.9730  -76.0938 H         1 UNK         0.3453 
     86 H86       -73.8627   29.1938  -74.9119 H         1 UNK         0.2984 
     87 H87       -75.4876   28.4011  -76.9547 H         1 UNK         0.0554 
     88 H88       -74.8442   28.3094  -79.3894 H         1 UNK         0.0847 
     89 H89       -74.0501   29.8736  -79.2271 H         1 UNK         0.0847 
     90 H90       -75.7867   29.7386  -78.9951 H         1 UNK         0.0847 
     91 H91       -73.6614   27.1986  -76.6947 H         1 UNK         0.3141 
     92 H92       -70.4396   27.2972  -77.8577 H         1 UNK         0.0743 
     93 H93       -69.4081   27.1622  -75.5879 H         1 UNK         0.0784 
     94 H94       -69.7653   28.8281  -76.0042 H         1 UNK         0.0784 
     95 H95       -70.8108   27.9691  -74.8833 H         1 UNK         0.0784 
     96 H96       -71.6195   25.7887  -75.6943 H         1 UNK         0.3213 
     97 H97       -73.7853   23.8193  -77.5113 H         1 UNK         0.0855 
     98 H98       -71.7270   22.6145  -78.2759 H         1 UNK         0.0814 
     99 H99       -72.4802   21.7971  -76.9190 H         1 UNK         0.0814 
    100 H100      -71.0278   22.7693  -76.6704 H         1 UNK         0.0814 
    101 H101      -72.8042   23.2878  -74.9526 H         1 UNK         0.3105 
    102 H102      -73.4126   24.2073  -73.0368 H         1 UNK         0.0547 
    103 H103      -73.4702   26.7392  -72.9438 H         1 UNK         0.0837 
    104 H104      -75.2243   26.6879  -73.0642 H         1 UNK         0.0837 
    105 H105      -74.4080   25.9830  -71.6683 H         1 UNK         0.0837 
    106 H106      -76.2072   24.2137  -73.9954 H         1 UNK         0.3020 
    107 H107      -76.8825   21.3136  -72.3486 H         1 UNK         0.1245 
    108 H108      -77.4467   22.6096  -70.2696 H         1 UNK         0.0781 
    109 H109      -78.8294   22.0483  -71.1541 H         1 UNK         0.0781 
    110 H110      -76.8358   24.9528  -69.8508 H         1 UNK         0.0836 
    111 H111      -78.3392   24.8827  -68.9542 H         1 UNK         0.0836 
    112 H112      -78.5040   23.3492  -73.6672 H         1 UNK         0.3022 
    113 H113      -78.1663   21.7471  -76.8743 H         1 UNK         0.0747 
    114 H114      -80.5799   22.2099  -76.6431 H         1 UNK         0.0793 
    115 H115      -80.1100   20.9352  -75.5304 H         1 UNK         0.0793 
    116 H116      -80.3943   22.5635  -74.9280 H         1 UNK         0.0793 
    117 H117      -79.0596   24.3695  -75.9106 H         1 UNK         0.3047 
    118 H118      -76.7770   26.2666  -76.6802 H         1 UNK         0.0822 
    119 H119      -77.6532   25.6356  -79.5446 H         1 UNK         0.0807 
    120 H120      -76.0053   25.8554  -78.9705 H         1 UNK         0.0807 
    121 H121      -77.1127   27.2179  -78.9855 H         1 UNK         0.0807 
    122 H122      -78.7344   27.1302  -76.3325 H         1 UNK         0.2946 
    123 H123      -81.5305   27.5534  -77.7310 H         1 UNK         0.1144 
    124 H124      -82.7056   25.3926  -77.6704 H         1 UNK         0.0793 
    125 H125      -82.1244   25.0594  -76.0481 H         1 UNK         0.0793 
    126 H126      -83.2605   26.3784  -76.3298 H         1 UNK         0.0793 
    127 H127      -81.0201   28.6195  -75.8650 H         1 UNK         0.2896 
@<TRIPOS>BOND
     1    1    2 1    
     2    1   67 1    
     3    1   68 1    
     4    1   69 1    
     5    2    3 2    
     6    2    4 am   BACKBONE|DICT|INTERRES
     7    4    5 1    
     8    4   70 1    
     9    5    6 1    
    10    5   65 1    
    11    5   71 1    
    12    6    7 1    
    13    6   72 1    
    14    6   73 1    
    15    7    8 1    
    16    8    9 1    
    17    8   74 1    
    18    8   75 1    
    19    9   10 ar   
    20    9   14 ar   
    21   10   11 ar   
    22   10   76 1    
    23   11   12 ar   
    24   11   48 1    
    25   12   13 ar   
    26   12   77 1    
    27   13   14 ar   
    28   13   15 1    
    29   14   78 1    
    30   15   16 1    
    31   15   79 1    
    32   15   80 1    
    33   16   17 1    
    34   17   18 1    
    35   17   81 1    
    36   17   82 1    
    37   18   19 1    
    38   18   22 1    
    39   18   83 1    
    40   19   20 am   BACKBONE|DICT|INTERRES
    41   19   21 2    
    42   20   84 1    
    43   20   85 1    
    44   22   23 am   BACKBONE|DICT|INTERRES
    45   22   86 1    
    46   23   24 2    
    47   23   25 1    
    48   25   26 1    
    49   25   27 1    
    50   25   87 1    
    51   26   88 1    
    52   26   89 1    
    53   26   90 1    
    54   27   28 am   BACKBONE|DICT|INTERRES
    55   27   91 1    
    56   28   29 2    
    57   28   30 1    
    58   30   31 1    
    59   30   32 1    
    60   30   92 1    
    61   31   93 1    
    62   31   94 1    
    63   31   95 1    
    64   32   33 am   BACKBONE|DICT|INTERRES
    65   32   96 1    
    66   33   34 2    
    67   33   35 1    
    68   35   36 1    
    69   35   37 1    
    70   35   97 1    
    71   36   98 1    
    72   36   99 1    
    73   36  100 1    
    74   37   38 am   BACKBONE|DICT|INTERRES
    75   37  101 1    
    76   38   39 2    
    77   38   40 1    
    78   40   41 1    
    79   40   42 1    
    80   40  102 1    
    81   41  103 1    
    82   41  104 1    
    83   41  105 1    
    84   42   43 am   BACKBONE|DICT|INTERRES
    85   42  106 1    
    86   43   44 2    
    87   43   45 1    
    88   45   46 1    
    89   45   49 1    
    90   45  107 1    
    91   46   47 1    
    92   46  108 1    
    93   46  109 1    
    94   47   48 1    
    95   48  110 1    
    96   48  111 1    
    97   49   50 am   BACKBONE|DICT|INTERRES
    98   49  112 1    
    99   50   51 2    
   100   50   52 1    
   101   52   53 1    
   102   52   54 1    
   103   52  113 1    
   104   53  114 1    
   105   53  115 1    
   106   53  116 1    
   107   54   55 am   BACKBONE|DICT|INTERRES
   108   54  117 1    
   109   55   56 2    
   110   55   57 1    
   111   57   58 1    
   112   57   59 1    
   113   57  118 1    
   114   58  119 1    
   115   58  120 1    
   116   58  121 1    
   117   59   60 am   BACKBONE|DICT|INTERRES
   118   59  122 1    
   119   60   61 2    
   120   60   62 1    
   121   62   63 1    
   122   62   64 1    
   123   62  123 1    
   124   63  124 1    
   125   63  125 1    
   126   63  126 1    
   127   64   65 am   BACKBONE|DICT|INTERRES
   128   64  127 1    
   129   65   66 2    
@<TRIPOS>SUBSTRUCTURE
     1 UNK         1 GROUP             0       ****    0 ROOT    
