@<TRIPOS>MOLECULE
3R135
127   129    1
SMALL
USER_CHARGES


@<TRIPOS>ATOM
      1 CA        -83.4367   26.1988  -74.6880 C.3       0 UNK        -0.1998 
      2 C         -82.2313   27.1068  -74.8761 C.2       0 UNK         0.4909 
      3 O         -81.9946   27.5888  -75.9844 O.2       0 UNK        -0.5240 
      4 N         -81.4599   27.3349  -73.8042 N.am      1 UNK        -0.4739 
      5 CA        -80.2250   28.1295  -73.7954 C.3       1 UNK         0.0864 
      6 C6        -79.6721   28.2755  -72.3544 C.3       11 UNK        -0.0881 
      7 S7        -78.7886   29.8477  -72.0819 S.3       11 UNK        -0.2682 
      8 C8        -78.3218   29.6831  -70.3257 C.3       11 UNK         0.0289 
      9 C9        -77.0388   28.8808  -70.1715 C.ar      11 UNK        -0.0687 
     10 C10       -77.0778   27.4855  -70.1231 C.ar      11 UNK        -0.0823 
     11 C11       -75.8965   26.7382  -70.0831 C.ar      11 UNK        -0.0830 
     12 C12       -74.6671   27.4045  -70.0472 C.ar      11 UNK        -0.1021 
     13 C13       -74.6165   28.8029  -70.0423 C.ar      11 UNK        -0.0753 
     14 C14       -75.8064   29.5339  -70.0972 C.ar      11 UNK        -0.0933 
     15 C15       -73.2779   29.5226  -69.9670 C.3       11 UNK         0.0166 
     16 S16       -72.6634   29.9924  -71.6150 S.3       11 UNK        -0.2615 
     17 C17       -73.5934   31.5303  -71.9616 C.3       11 UNK        -0.0865 
     18 CA        -74.7615   31.3410  -72.9668 C.3       10 UNK         0.0862 
     19 C         -75.4780   32.6925  -73.2320 C.2       10 UNK         0.5551 
     20 N         -76.6932   32.8653  -72.7305 N.am      10 UNK        -0.7319 
     21 O         -74.9181   33.5959  -73.8500 O.2       10 UNK        -0.5018 
     22 N         -74.2994   30.6781  -74.1899 N.am      10 UNK        -0.4509 
     23 C         -75.0598   30.3046  -75.2256 C.2       10 UNK         0.4899 
     24 O         -76.2594   30.5544  -75.3344 O.2       10 UNK        -0.4839 
     25 CA        -74.3586   29.4759  -76.3176 C.3       9 UNK         0.0222 
     26 CB        -73.8334   30.3887  -77.4367 C.3       9 UNK        -0.1966 
     27 N         -73.2632   28.6429  -75.8067 N.am      9 UNK        -0.4218 
     28 C         -73.4150   27.6305  -74.9406 C.2       9 UNK         0.5020 
     29 O         -74.5018   27.2600  -74.4984 O.2       9 UNK        -0.5274 
     30 CA        -72.1364   26.8737  -74.5547 C.3       8 UNK         0.0270 
     31 CB        -72.2008   26.2736  -73.1395 C.3       8 UNK        -0.1976 
     32 N         -71.9396   25.8042  -75.5265 N.am      8 UNK        -0.4313 
     33 C         -71.3167   25.9660  -76.7010 C.2       8 UNK         0.5041 
     34 O         -70.6929   26.9833  -77.0084 O.2       8 UNK        -0.5577 
     35 CA        -71.4341   24.8206  -77.7211 C.3       7 UNK         0.0284 
     36 CB        -70.2310   23.8707  -77.6068 C.3       7 UNK        -0.1958 
     37 N         -72.6751   24.0502  -77.5971 N.am      7 UNK        -0.4454 
     38 C         -73.9121   24.5331  -77.7885 C.2       7 UNK         0.5089 
     39 O         -74.1503   25.6962  -78.1145 O.2       7 UNK        -0.5125 
     40 CA        -75.0826   23.5504  -77.5966 C.3       6 UNK         0.0408 
     41 CB        -74.6813   22.0648  -77.7423 C.3       6 UNK        -0.1791 
     42 N         -75.8040   23.7554  -76.3357 N.am      6 UNK        -0.4762 
     43 C         -75.3098   23.7162  -75.0873 C.2       6 UNK         0.5007 
     44 O         -74.1058   23.6207  -74.8370 O.2       6 UNK        -0.5032 
     45 CA        -76.3241   23.7072  -73.9204 C.3       5 UNK         0.0783 
     46 C46       -76.0370   24.7953  -72.8573 C.3       11 UNK        -0.0857 
     47 S47       -77.0267   24.5160  -71.3492 S.3       11 UNK        -0.2512 
     48 C48       -75.9499   25.2146  -70.0523 C.3       11 UNK         0.0225 
     49 N         -77.7166   23.7771  -74.3790 N.am      5 UNK        -0.4615 
     50 C         -78.5100   22.7201  -74.5873 C.2       4 UNK         0.5053 
     51 O         -78.1251   21.5519  -74.5394 O.2       4 UNK        -0.5105 
     52 CA        -79.9846   23.0181  -74.8903 C.3       4 UNK         0.0263 
     53 CB        -80.7158   23.4800  -73.6175 C.3       4 UNK        -0.1981 
     54 N         -80.1148   24.0455  -75.9232 N.am      4 UNK        -0.4224 
     55 C         -80.3667   23.7981  -77.2166 C.2       3 UNK         0.4895 
     56 O         -80.5337   22.6680  -77.6766 O.2       3 UNK        -0.5091 
     57 CA        -80.4633   25.0047  -78.1693 C.3       3 UNK         0.0250 
     58 CB        -81.9293   25.2979  -78.5277 C.3       3 UNK        -0.1996 
     59 N         -79.8388   26.2167  -77.6310 N.am      3 UNK        -0.4254 
     60 C         -78.5122   26.4150  -77.6028 C.2       2 UNK         0.5004 
     61 O         -77.7027   25.6185  -78.0732 O.2       2 UNK        -0.5226 
     62 CA        -77.9924   27.6944  -76.9207 C.3       2 UNK         0.0269 
     63 CB        -77.7991   28.7981  -77.9742 C.3       2 UNK        -0.1926 
     64 N         -78.8533   28.1952  -75.8422 N.am      2 UNK        -0.4687 
     65 C         -79.1898   27.4971  -74.7487 C.2       1 UNK         0.5165 
     66 O         -78.7904   26.3524  -74.5237 O.2       1 UNK        -0.5079 
     67 H67       -83.5817   25.9250  -73.6431 H         1 UNK         0.0900 
     68 H68       -83.3099   25.2829  -75.2642 H         1 UNK         0.0900 
     69 H69       -84.3405   26.6986  -75.0354 H         1 UNK         0.0900 
     70 H70       -81.6989   26.8945  -72.9276 H         1 UNK         0.2959 
     71 H71       -80.4918   29.1198  -74.1715 H         1 UNK         0.1079 
     72 H72       -80.4919   28.2560  -71.6343 H         1 UNK         0.0837 
     73 H73       -79.0301   27.4336  -72.0938 H         1 UNK         0.0837 
     74 H74       -78.1904   30.6804  -69.9032 H         1 UNK         0.0685 
     75 H75       -79.1329   29.2198  -69.7618 H         1 UNK         0.0685 
     76 H76       -78.0296   26.9742  -70.1418 H         1 UNK         0.1434 
     77 H77       -73.7475   26.8365  -70.0109 H         1 UNK         0.1329 
     78 H78       -75.7728   30.6140  -70.1041 H         1 UNK         0.1335 
     79 H79       -73.3533   30.4032  -69.3275 H         1 UNK         0.0680 
     80 H80       -72.5373   28.8743  -69.4962 H         1 UNK         0.0680 
     81 H81       -72.8804   32.2598  -72.3511 H         1 UNK         0.1032 
     82 H82       -73.9607   31.9541  -71.0256 H         1 UNK         0.1032 
     83 H83       -75.4863   30.6578  -72.5240 H         1 UNK         0.0461 
     84 H84       -77.1652   33.7428  -72.8817 H         1 UNK         0.3453 
     85 H85       -77.1719   32.1128  -72.2600 H         1 UNK         0.3453 
     86 H86       -73.3261   30.4144  -74.1954 H         1 UNK         0.2984 
     87 H87       -75.0999   28.8039  -76.7516 H         1 UNK         0.0554 
     88 H88       -73.4115   29.8083  -78.2575 H         1 UNK         0.0847 
     89 H89       -73.0641   31.0721  -77.0751 H         1 UNK         0.0847 
     90 H90       -74.6389   30.9958  -77.8526 H         1 UNK         0.0847 
     91 H91       -72.3375   28.8263  -76.1704 H         1 UNK         0.3141 
     92 H92       -71.2969   27.5723  -74.5779 H         1 UNK         0.0743 
     93 H93       -72.4861   27.0280  -72.4054 H         1 UNK         0.0784 
     94 H94       -72.9249   25.4640  -73.0765 H         1 UNK         0.0784 
     95 H95       -71.2325   25.8744  -72.8380 H         1 UNK         0.0784 
     96 H96       -72.4941   24.9659  -75.3847 H         1 UNK         0.3213 
     97 H97       -71.4233   25.2703  -78.7163 H         1 UNK         0.0855 
     98 H98       -69.2927   24.4158  -77.7205 H         1 UNK         0.0814 
     99 H99       -70.2535   23.1045  -78.3820 H         1 UNK         0.0814 
    100 H100      -70.2012   23.3704  -76.6380 H         1 UNK         0.0814 
    101 H101      -72.5846   23.0870  -77.3083 H         1 UNK         0.3105 
    102 H102      -75.7920   23.7682  -78.3959 H         1 UNK         0.0547 
    103 H103      -74.1563   21.8878  -78.6821 H         1 UNK         0.0837 
    104 H104      -74.0381   21.7233  -76.9307 H         1 UNK         0.0837 
    105 H105      -75.5636   21.4245  -77.7478 H         1 UNK         0.0837 
    106 H106      -76.7982   23.9101  -76.4335 H         1 UNK         0.3020 
    107 H107      -76.1675   22.7421  -73.4327 H         1 UNK         0.1245 
    108 H108      -76.2588   25.7912  -73.2440 H         1 UNK         0.0781 
    109 H109      -74.9845   24.7938  -72.5778 H         1 UNK         0.0781 
    110 H110      -74.9518   24.7831  -70.1423 H         1 UNK         0.0836 
    111 H111      -76.3311   24.9029  -69.0791 H         1 UNK         0.0836 
    112 H112      -78.1161   24.7142  -74.4170 H         1 UNK         0.3022 
    113 H113      -80.4521   22.0883  -75.2220 H         1 UNK         0.0747 
    114 H114      -81.7789   23.6294  -73.8053 H         1 UNK         0.0793 
    115 H115      -80.6289   22.7338  -72.8266 H         1 UNK         0.0793 
    116 H116      -80.3096   24.4143  -73.2277 H         1 UNK         0.0793 
    117 H117      -79.9234   24.9983  -75.6373 H         1 UNK         0.3047 
    118 H118      -79.9450   24.7303  -79.0909 H         1 UNK         0.0822 
    119 H119      -82.0087   26.1306  -79.2267 H         1 UNK         0.0807 
    120 H120      -82.5231   25.5415  -77.6473 H         1 UNK         0.0807 
    121 H121      -82.3944   24.4325  -79.0018 H         1 UNK         0.0807 
    122 H122      -80.4547   26.9009  -77.2018 H         1 UNK         0.2946 
    123 H123      -77.0233   27.4518  -76.4778 H         1 UNK         0.1144 
    124 H124      -77.3898   29.7078  -77.5375 H         1 UNK         0.0793 
    125 H125      -78.7392   29.0577  -78.4627 H         1 UNK         0.0793 
    126 H126      -77.1053   28.4748  -78.7516 H         1 UNK         0.0793 
    127 H127      -79.2393   29.1198  -75.9686 H         1 UNK         0.2896 
@<TRIPOS>BOND
     1    1    2 1    
     2    1   67 1    
     3    1   68 1    
     4    1   69 1    
     5    2    3 2    
     6    2    4 am   BACKBONE|DICT|INTERRES
     7    4    5 1    
     8    4   70 1    
     9    5    6 1    
    10    5   65 1    
    11    5   71 1    
    12    6    7 1    
    13    6   72 1    
    14    6   73 1    
    15    7    8 1    
    16    8    9 1    
    17    8   74 1    
    18    8   75 1    
    19    9   10 ar   
    20    9   14 ar   
    21   10   11 ar   
    22   10   76 1    
    23   11   12 ar   
    24   11   48 1    
    25   12   13 ar   
    26   12   77 1    
    27   13   14 ar   
    28   13   15 1    
    29   14   78 1    
    30   15   16 1    
    31   15   79 1    
    32   15   80 1    
    33   16   17 1    
    34   17   18 1    
    35   17   81 1    
    36   17   82 1    
    37   18   19 1    
    38   18   22 1    
    39   18   83 1    
    40   19   20 am   BACKBONE|DICT|INTERRES
    41   19   21 2    
    42   20   84 1    
    43   20   85 1    
    44   22   23 am   BACKBONE|DICT|INTERRES
    45   22   86 1    
    46   23   24 2    
    47   23   25 1    
    48   25   26 1    
    49   25   27 1    
    50   25   87 1    
    51   26   88 1    
    52   26   89 1    
    53   26   90 1    
    54   27   28 am   BACKBONE|DICT|INTERRES
    55   27   91 1    
    56   28   29 2    
    57   28   30 1    
    58   30   31 1    
    59   30   32 1    
    60   30   92 1    
    61   31   93 1    
    62   31   94 1    
    63   31   95 1    
    64   32   33 am   BACKBONE|DICT|INTERRES
    65   32   96 1    
    66   33   34 2    
    67   33   35 1    
    68   35   36 1    
    69   35   37 1    
    70   35   97 1    
    71   36   98 1    
    72   36   99 1    
    73   36  100 1    
    74   37   38 am   BACKBONE|DICT|INTERRES
    75   37  101 1    
    76   38   39 2    
    77   38   40 1    
    78   40   41 1    
    79   40   42 1    
    80   40  102 1    
    81   41  103 1    
    82   41  104 1    
    83   41  105 1    
    84   42   43 am   BACKBONE|DICT|INTERRES
    85   42  106 1    
    86   43   44 2    
    87   43   45 1    
    88   45   46 1    
    89   45   49 1    
    90   45  107 1    
    91   46   47 1    
    92   46  108 1    
    93   46  109 1    
    94   47   48 1    
    95   48  110 1    
    96   48  111 1    
    97   49   50 am   BACKBONE|DICT|INTERRES
    98   49  112 1    
    99   50   51 2    
   100   50   52 1    
   101   52   53 1    
   102   52   54 1    
   103   52  113 1    
   104   53  114 1    
   105   53  115 1    
   106   53  116 1    
   107   54   55 am   BACKBONE|DICT|INTERRES
   108   54  117 1    
   109   55   56 2    
   110   55   57 1    
   111   57   58 1    
   112   57   59 1    
   113   57  118 1    
   114   58  119 1    
   115   58  120 1    
   116   58  121 1    
   117   59   60 am   BACKBONE|DICT|INTERRES
   118   59  122 1    
   119   60   61 2    
   120   60   62 1    
   121   62   63 1    
   122   62   64 1    
   123   62  123 1    
   124   63  124 1    
   125   63  125 1    
   126   63  126 1    
   127   64   65 am   BACKBONE|DICT|INTERRES
   128   64  127 1    
   129   65   66 2    
@<TRIPOS>SUBSTRUCTURE
     1 UNK         1 GROUP             0       ****    0 ROOT    
