@<TRIPOS>MOLECULE
3R135
127   129    1
SMALL
USER_CHARGES


@<TRIPOS>ATOM
      1 CA        -81.0935   30.8832  -76.0579 C.3       0 UNK        -0.1998 
      2 C         -80.6583   29.5610  -75.4453 C.2       0 UNK         0.4909 
      3 O         -80.9886   28.5028  -75.9821 O.2       0 UNK        -0.5240 
      4 N         -79.9024   29.6161  -74.3373 N.am      1 UNK        -0.4739 
      5 CA        -79.4157   28.4691  -73.5499 C.3       1 UNK         0.0864 
      6 C6        -80.5554   27.7834  -72.7421 C.3       11 UNK        -0.0881 
      7 S7        -81.0251   28.7783  -71.2866 S.3       11 UNK        -0.2682 
      8 C8        -80.1259   27.9155  -69.9518 C.3       11 UNK         0.0289 
      9 C9        -78.6155   28.0433  -70.1057 C.ar      11 UNK        -0.0687 
     10 C10       -77.8962   27.0777  -70.8154 C.ar      11 UNK        -0.0823 
     11 C11       -76.5183   27.2121  -71.0119 C.ar      11 UNK        -0.0830 
     12 C12       -75.8544   28.3040  -70.4474 C.ar      11 UNK        -0.1021 
     13 C13       -76.5575   29.2795  -69.7301 C.ar      11 UNK        -0.0753 
     14 C14       -77.9392   29.1391  -69.5621 C.ar      11 UNK        -0.0933 
     15 C15       -75.8471   30.4942  -69.1350 C.3       11 UNK         0.0166 
     16 S16       -74.5344   31.1934  -70.1952 S.3       11 UNK        -0.2615 
     17 C17       -75.4678   31.6178  -71.7103 C.3       11 UNK        -0.0865 
     18 CA        -74.5683   32.0533  -72.9024 C.3       10 UNK         0.0862 
     19 C         -73.9146   33.4463  -72.6992 C.2       10 UNK         0.5551 
     20 N         -74.7128   34.5037  -72.6393 N.am      10 UNK        -0.7319 
     21 O         -72.6955   33.5812  -72.5968 O.2       10 UNK        -0.5018 
     22 N         -73.5625   31.0440  -73.2541 N.am      10 UNK        -0.4509 
     23 C         -73.7918   29.9121  -73.9223 C.2       10 UNK         0.4899 
     24 O         -74.9051   29.5496  -74.3072 O.2       10 UNK        -0.4839 
     25 CA        -72.5684   29.0219  -74.1789 C.3       9 UNK         0.0222 
     26 CB        -72.5116   27.8733  -73.1610 C.3       9 UNK        -0.1966 
     27 N         -72.6440   28.4542  -75.5213 N.am      9 UNK        -0.4218 
     28 C         -72.0286   28.9255  -76.6085 C.2       9 UNK         0.5020 
     29 O         -71.2364   29.8700  -76.5854 O.2       9 UNK        -0.5274 
     30 CA        -72.3570   28.2233  -77.9459 C.3       8 UNK         0.0270 
     31 CB        -71.5465   28.7917  -79.1269 C.3       8 UNK        -0.1976 
     32 N         -72.1894   26.7632  -77.9196 N.am      8 UNK        -0.4313 
     33 C         -72.9958   25.8941  -77.2986 C.2       8 UNK         0.5041 
     34 O         -73.9315   26.2287  -76.5688 O.2       8 UNK        -0.5577 
     35 CA        -72.7158   24.4044  -77.5035 C.3       7 UNK         0.0284 
     36 CB        -71.7542   23.8723  -76.4258 C.3       7 UNK        -0.1958 
     37 N         -73.9996   23.7188  -77.4173 N.am      7 UNK        -0.4454 
     38 C         -74.2977   22.5110  -77.9048 C.2       7 UNK         0.5089 
     39 O         -73.4892   21.7932  -78.4965 O.2       7 UNK        -0.5125 
     40 CA        -75.7513   22.0399  -77.6935 C.3       6 UNK         0.0408 
     41 CB        -75.9413   20.5243  -77.9151 C.3       6 UNK        -0.1791 
     42 N         -76.2972   22.4665  -76.3979 N.am      6 UNK        -0.4762 
     43 C         -75.8769   22.0975  -75.1768 C.2       6 UNK         0.5007 
     44 O         -74.9854   21.2711  -74.9793 O.2       6 UNK        -0.5032 
     45 CA        -76.5492   22.7677  -73.9609 C.3       5 UNK         0.0783 
     46 C46       -75.6216   23.8490  -73.3571 C.3       11 UNK        -0.0857 
     47 S47       -76.2881   24.5155  -71.7949 S.3       11 UNK        -0.2512 
     48 C48       -75.7456   26.2509  -71.9089 C.3       11 UNK         0.0225 
     49 N         -77.8903   23.2864  -74.2630 N.am      5 UNK        -0.4615 
     50 C         -78.9777   22.5134  -74.3922 C.2       4 UNK         0.5053 
     51 O         -78.9615   21.2856  -74.3014 O.2       4 UNK        -0.5105 
     52 CA        -80.3073   23.2285  -74.6668 C.3       4 UNK         0.0263 
     53 CB        -80.8787   23.8258  -73.3703 C.3       4 UNK        -0.1981 
     54 N         -80.1417   24.2805  -75.6698 N.am      4 UNK        -0.4224 
     55 C         -80.1946   24.0708  -76.9936 C.2       3 UNK         0.4895 
     56 O         -80.4493   22.9790  -77.5030 O.2       3 UNK        -0.5091 
     57 CA        -79.9189   25.2723  -77.9158 C.3       3 UNK         0.0250 
     58 CB        -81.2383   25.9275  -78.3539 C.3       3 UNK        -0.1996 
     59 N         -79.0544   26.2847  -77.3071 N.am      3 UNK        -0.4254 
     60 C         -77.7474   26.1103  -77.0599 C.2       2 UNK         0.5004 
     61 O         -77.1269   25.0890  -77.3538 O.2       2 UNK        -0.5226 
     62 CA        -77.0167   27.2446  -76.3218 C.3       2 UNK         0.0269 
     63 CB        -76.3889   28.2163  -77.3340 C.3       2 UNK        -0.1926 
     64 N         -77.8556   27.9985  -75.3882 N.am      2 UNK        -0.4687 
     65 C         -78.5656   27.4756  -74.3781 C.2       1 UNK         0.5165 
     66 O         -78.5764   26.2693  -74.1191 O.2       1 UNK        -0.5079 
     67 H67       -82.1812   30.9399  -76.0895 H         1 UNK         0.0900 
     68 H68       -80.7182   30.9654  -77.0775 H         1 UNK         0.0900 
     69 H69       -80.7257   31.7376  -75.4901 H         1 UNK         0.0900 
     70 H70       -79.6640   30.5220  -73.9577 H         1 UNK         0.2959 
     71 H71       -78.7008   28.8853  -72.8387 H         1 UNK         0.1079 
     72 H72       -81.4361   27.6309  -73.3675 H         1 UNK         0.0837 
     73 H73       -80.2835   26.7897  -72.3912 H         1 UNK         0.0837 
     74 H74       -80.4349   28.3341  -68.9929 H         1 UNK         0.0685 
     75 H75       -80.4199   26.8648  -69.9315 H         1 UNK         0.0685 
     76 H76       -78.4175   26.2389  -71.2538 H         1 UNK         0.1434 
     77 H77       -74.7894   28.4146  -70.5981 H         1 UNK         0.1329 
     78 H78       -78.4951   29.8903  -69.0175 H         1 UNK         0.1335 
     79 H79       -75.4061   30.2043  -68.1806 H         1 UNK         0.0680 
     80 H80       -76.5650   31.2862  -68.9162 H         1 UNK         0.0680 
     81 H81       -76.1984   32.3915  -71.4690 H         1 UNK         0.1032 
     82 H82       -76.0550   30.7505  -72.0141 H         1 UNK         0.1032 
     83 H83       -75.2120   32.1673  -73.7771 H         1 UNK         0.0461 
     84 H84       -75.7123   34.4126  -72.7318 H         1 UNK         0.3453 
     85 H85       -74.3049   35.4160  -72.5065 H         1 UNK         0.3453 
     86 H86       -72.6194   31.2934  -72.9858 H         1 UNK         0.2984 
     87 H87       -71.6610   29.6206  -74.0732 H         1 UNK         0.0554 
     88 H88       -71.5850   27.3073  -73.2580 H         1 UNK         0.0847 
     89 H89       -73.3387   27.1791  -73.3036 H         1 UNK         0.0847 
     90 H90       -72.5605   28.2466  -72.1370 H         1 UNK         0.0847 
     91 H91       -73.3013   27.6876  -75.6624 H         1 UNK         0.3141 
     92 H92       -73.4091   28.4327  -78.1480 H         1 UNK         0.0743 
     93 H93       -71.8493   28.3398  -80.0717 H         1 UNK         0.0784 
     94 H94       -71.6978   29.8677  -79.2253 H         1 UNK         0.0784 
     95 H95       -70.4764   28.6228  -79.0000 H         1 UNK         0.0784 
     96 H96       -71.4132   26.3987  -78.4537 H         1 UNK         0.3213 
     97 H97       -72.2898   24.2503  -78.4973 H         1 UNK         0.0855 
     98 H98       -72.1616   24.0089  -75.4229 H         1 UNK         0.0814 
     99 H99       -70.7958   24.3913  -76.4639 H         1 UNK         0.0814 
    100 H100      -71.5526   22.8097  -76.5617 H         1 UNK         0.0814 
    101 H101      -74.7352   24.2795  -76.9989 H         1 UNK         0.3105 
    102 H102      -76.3454   22.5549  -78.4497 H         1 UNK         0.0547 
    103 H103      -75.6774   20.2447  -78.9356 H         1 UNK         0.0837 
    104 H104      -75.3152   19.9325  -77.2471 H         1 UNK         0.0837 
    105 H105      -76.9778   20.2272  -77.7562 H         1 UNK         0.0837 
    106 H106      -76.9825   23.2126  -76.4560 H         1 UNK         0.3020 
    107 H107      -76.6623   21.9806  -73.2111 H         1 UNK         0.1245 
    108 H108      -75.4696   24.6557  -74.0772 H         1 UNK         0.0781 
    109 H109      -74.6323   23.4382  -73.1448 H         1 UNK         0.0781 
    110 H110      -75.8479   26.6061  -72.9353 H         1 UNK         0.0836 
    111 H111      -74.6835   26.2806  -71.6647 H         1 UNK         0.0836 
    112 H112      -77.9964   24.2952  -74.2895 H         1 UNK         0.3022 
    113 H113      -81.0219   22.4897  -75.0367 H         1 UNK         0.0747 
    114 H114      -81.7987   24.3800  -73.5569 H         1 UNK         0.0793 
    115 H115      -81.1135   23.0377  -72.6538 H         1 UNK         0.0793 
    116 H116      -80.1713   24.4985  -72.8859 H         1 UNK         0.0793 
    117 H117      -79.8642   25.1931  -75.3271 H         1 UNK         0.3047 
    118 H118      -79.4150   24.8912  -78.8069 H         1 UNK         0.0822 
    119 H119      -81.0633   26.7436  -79.0551 H         1 UNK         0.0807 
    120 H120      -81.7908   26.3290  -77.5034 H         1 UNK         0.0807 
    121 H121      -81.8864   25.2053  -78.8523 H         1 UNK         0.0807 
    122 H122      -79.5013   27.1388  -76.9934 H         1 UNK         0.2946 
    123 H123      -76.2237   26.7850  -75.7306 H         1 UNK         0.1144 
    124 H124      -75.7410   28.9394  -76.8389 H         1 UNK         0.0793 
    125 H125      -77.1474   28.7661  -77.8922 H         1 UNK         0.0793 
    126 H126      -75.7759   27.6792  -78.0590 H         1 UNK         0.0793 
    127 H127      -77.8960   28.9979  -75.5248 H         1 UNK         0.2896 
@<TRIPOS>BOND
     1    1    2 1    
     2    1   67 1    
     3    1   68 1    
     4    1   69 1    
     5    2    3 2    
     6    2    4 am   BACKBONE|DICT|INTERRES
     7    4    5 1    
     8    4   70 1    
     9    5    6 1    
    10    5   65 1    
    11    5   71 1    
    12    6    7 1    
    13    6   72 1    
    14    6   73 1    
    15    7    8 1    
    16    8    9 1    
    17    8   74 1    
    18    8   75 1    
    19    9   10 ar   
    20    9   14 ar   
    21   10   11 ar   
    22   10   76 1    
    23   11   12 ar   
    24   11   48 1    
    25   12   13 ar   
    26   12   77 1    
    27   13   14 ar   
    28   13   15 1    
    29   14   78 1    
    30   15   16 1    
    31   15   79 1    
    32   15   80 1    
    33   16   17 1    
    34   17   18 1    
    35   17   81 1    
    36   17   82 1    
    37   18   19 1    
    38   18   22 1    
    39   18   83 1    
    40   19   20 am   BACKBONE|DICT|INTERRES
    41   19   21 2    
    42   20   84 1    
    43   20   85 1    
    44   22   23 am   BACKBONE|DICT|INTERRES
    45   22   86 1    
    46   23   24 2    
    47   23   25 1    
    48   25   26 1    
    49   25   27 1    
    50   25   87 1    
    51   26   88 1    
    52   26   89 1    
    53   26   90 1    
    54   27   28 am   BACKBONE|DICT|INTERRES
    55   27   91 1    
    56   28   29 2    
    57   28   30 1    
    58   30   31 1    
    59   30   32 1    
    60   30   92 1    
    61   31   93 1    
    62   31   94 1    
    63   31   95 1    
    64   32   33 am   BACKBONE|DICT|INTERRES
    65   32   96 1    
    66   33   34 2    
    67   33   35 1    
    68   35   36 1    
    69   35   37 1    
    70   35   97 1    
    71   36   98 1    
    72   36   99 1    
    73   36  100 1    
    74   37   38 am   BACKBONE|DICT|INTERRES
    75   37  101 1    
    76   38   39 2    
    77   38   40 1    
    78   40   41 1    
    79   40   42 1    
    80   40  102 1    
    81   41  103 1    
    82   41  104 1    
    83   41  105 1    
    84   42   43 am   BACKBONE|DICT|INTERRES
    85   42  106 1    
    86   43   44 2    
    87   43   45 1    
    88   45   46 1    
    89   45   49 1    
    90   45  107 1    
    91   46   47 1    
    92   46  108 1    
    93   46  109 1    
    94   47   48 1    
    95   48  110 1    
    96   48  111 1    
    97   49   50 am   BACKBONE|DICT|INTERRES
    98   49  112 1    
    99   50   51 2    
   100   50   52 1    
   101   52   53 1    
   102   52   54 1    
   103   52  113 1    
   104   53  114 1    
   105   53  115 1    
   106   53  116 1    
   107   54   55 am   BACKBONE|DICT|INTERRES
   108   54  117 1    
   109   55   56 2    
   110   55   57 1    
   111   57   58 1    
   112   57   59 1    
   113   57  118 1    
   114   58  119 1    
   115   58  120 1    
   116   58  121 1    
   117   59   60 am   BACKBONE|DICT|INTERRES
   118   59  122 1    
   119   60   61 2    
   120   60   62 1    
   121   62   63 1    
   122   62   64 1    
   123   62  123 1    
   124   63  124 1    
   125   63  125 1    
   126   63  126 1    
   127   64   65 am   BACKBONE|DICT|INTERRES
   128   64  127 1    
   129   65   66 2    
@<TRIPOS>SUBSTRUCTURE
     1 UNK         1 GROUP             0       ****    0 ROOT    
