@<TRIPOS>MOLECULE
3R135
127   129    1
SMALL
USER_CHARGES


@<TRIPOS>ATOM
      1 CA        -84.0801   27.7867  -71.1962 C.3       0 UNK        -0.1998 
      2 C         -82.8983   27.6389  -72.1417 C.2       0 UNK         0.4909 
      3 O         -81.9542   26.9154  -71.8245 O.2       0 UNK        -0.5240 
      4 N         -82.9484   28.3197  -73.2960 N.am      1 UNK        -0.4739 
      5 CA        -81.9497   28.3601  -74.3795 C.3       1 UNK         0.0864 
      6 C6        -80.5482   28.8663  -73.9450 C.3       11 UNK        -0.0881 
      7 S7        -80.5884   30.5804  -73.3100 S.3       11 UNK        -0.2682 
      8 C8        -80.3752   30.3615  -71.5117 C.3       11 UNK         0.0289 
      9 C9        -78.9869   29.8494  -71.1593 C.ar      11 UNK        -0.0687 
     10 C10       -78.7927   28.5007  -70.8471 C.ar      11 UNK        -0.0823 
     11 C11       -77.5106   28.0080  -70.5849 C.ar      11 UNK        -0.0830 
     12 C12       -76.4247   28.8891  -70.5918 C.ar      11 UNK        -0.1021 
     13 C13       -76.6116   30.2469  -70.8682 C.ar      11 UNK        -0.0753 
     14 C14       -77.8943   30.7217  -71.1554 C.ar      11 UNK        -0.0933 
     15 C15       -75.4248   31.1961  -70.8493 C.3       11 UNK         0.0166 
     16 S16       -74.7507   31.4583  -72.5214 S.3       11 UNK        -0.2615 
     17 C17       -72.9644   31.6215  -72.1565 C.3       11 UNK        -0.0865 
     18 CA        -72.1055   30.4324  -72.6672 C.3       10 UNK         0.0862 
     19 C         -72.5247   29.0553  -72.0731 C.2       10 UNK         0.5551 
     20 N         -72.8206   28.0358  -72.8737 N.am      10 UNK        -0.7319 
     21 O         -72.5568   28.9019  -70.8547 O.2       10 UNK        -0.5018 
     22 N         -71.9918   30.4280  -74.1307 N.am      10 UNK        -0.4509 
     23 C         -70.9853   30.9451  -74.8392 C.2       10 UNK         0.4899 
     24 O         -70.0557   31.5891  -74.3494 O.2       10 UNK        -0.4839 
     25 CA        -71.0062   30.6411  -76.3503 C.3       9 UNK         0.0222 
     26 CB        -69.9989   31.4980  -77.1399 C.3       9 UNK        -0.1966 
     27 N         -70.7333   29.2226  -76.6071 N.am      9 UNK        -0.4218 
     28 C         -71.5989   28.2229  -76.3968 C.2       9 UNK         0.5020 
     29 O         -72.7471   28.3945  -75.9805 O.2       9 UNK        -0.5274 
     30 CA        -71.0799   26.8005  -76.6311 C.3       8 UNK         0.0270 
     31 CB        -70.4492   26.2370  -75.3467 C.3       8 UNK        -0.1976 
     32 N         -72.1957   25.9464  -77.0307 N.am      8 UNK        -0.4313 
     33 C         -72.1873   25.1091  -78.0768 C.2       8 UNK         0.5041 
     34 O         -71.1899   24.8968  -78.7689 O.2       8 UNK        -0.5577 
     35 CA        -73.4982   24.3765  -78.4333 C.3       7 UNK         0.0284 
     36 CB        -73.4465   22.9214  -77.9387 C.3       7 UNK        -0.1958 
     37 N         -74.7089   25.0099  -77.9080 N.am      7 UNK        -0.4454 
     38 C         -75.1396   26.2448  -78.1969 C.2       7 UNK         0.5089 
     39 O         -74.6247   26.9636  -79.0541 O.2       7 UNK        -0.5125 
     40 CA        -76.3270   26.7870  -77.3783 C.3       6 UNK         0.0408 
     41 CB        -77.5988   26.8295  -78.2391 C.3       6 UNK        -0.1791 
     42 N         -76.6167   26.0609  -76.1351 N.am      6 UNK        -0.4762 
     43 C         -75.7861   25.9122  -75.0898 C.2       6 UNK         0.5007 
     44 O         -74.6098   26.2699  -75.0838 O.2       6 UNK        -0.5032 
     45 CA        -76.3706   25.2118  -73.8543 C.3       5 UNK         0.0783 
     46 C46       -77.3824   26.1431  -73.1470 C.3       11 UNK        -0.0857 
     47 S47       -78.0404   25.4434  -71.5957 S.3       11 UNK        -0.2512 
     48 C48       -77.2839   26.5208  -70.3276 C.3       11 UNK         0.0225 
     49 N         -76.9534   23.9310  -74.2536 N.am      5 UNK        -0.4615 
     50 C         -76.2446   22.8129  -74.4595 C.2       4 UNK         0.5053 
     51 O         -75.0384   22.7162  -74.2346 O.2       4 UNK        -0.5105 
     52 CA        -76.9990   21.5963  -75.0260 C.3       4 UNK         0.0263 
     53 CB        -77.5056   20.7009  -73.8838 C.3       4 UNK        -0.1981 
     54 N         -78.1251   21.9626  -75.8882 N.am      4 UNK        -0.4224 
     55 C         -78.0153   22.5879  -77.0697 C.2       3 UNK         0.4895 
     56 O         -76.9422   22.8717  -77.6002 O.2       3 UNK        -0.5091 
     57 CA        -79.3297   23.0086  -77.7518 C.3       3 UNK         0.0250 
     58 CB        -79.8387   21.8895  -78.6740 C.3       3 UNK        -0.1996 
     59 N         -80.3903   23.3895  -76.8098 N.am      3 UNK        -0.4254 
     60 C         -80.3007   24.3837  -75.9146 C.2       2 UNK         0.5004 
     61 O         -79.2957   25.0836  -75.7681 O.2       2 UNK        -0.5226 
     62 CA        -81.5059   24.5636  -74.9773 C.3       2 UNK         0.0269 
     63 CB        -81.3974   23.5905  -73.7914 C.3       2 UNK        -0.1926 
     64 N         -81.6201   25.9231  -74.4477 N.am      2 UNK        -0.4687 
     65 C         -81.8561   27.0310  -75.1601 C.2       1 UNK         0.5165 
     66 O         -82.0364   27.0321  -76.3791 O.2       1 UNK        -0.5079 
     67 H67       -84.8405   28.4589  -71.5933 H         1 UNK         0.0900 
     68 H68       -84.5428   26.8158  -71.0207 H         1 UNK         0.0900 
     69 H69       -83.7445   28.1826  -70.2381 H         1 UNK         0.0900 
     70 H70       -83.7726   28.8748  -73.4808 H         1 UNK         0.2959 
     71 H71       -82.3389   29.0877  -75.0943 H         1 UNK         0.1079 
     72 H72       -79.8659   28.8600  -74.7975 H         1 UNK         0.0837 
     73 H73       -80.1020   28.1955  -73.2123 H         1 UNK         0.0837 
     74 H74       -80.5400   31.3217  -71.0208 H         1 UNK         0.0685 
     75 H75       -81.1439   29.6913  -71.1274 H         1 UNK         0.0685 
     76 H76       -79.6351   27.8220  -70.8480 H         1 UNK         0.1434 
     77 H77       -75.4279   28.5195  -70.3905 H         1 UNK         0.1329 
     78 H78       -78.0404   31.7673  -71.3902 H         1 UNK         0.1335 
     79 H79       -74.6565   30.7927  -70.1881 H         1 UNK         0.0680 
     80 H80       -75.7172   32.1579  -70.4255 H         1 UNK         0.0680 
     81 H81       -72.6101   32.5487  -72.6093 H         1 UNK         0.1032 
     82 H82       -72.8095   31.7561  -71.0850 H         1 UNK         0.1032 
     83 H83       -71.1016   30.5825  -72.2655 H         1 UNK         0.0461 
     84 H84       -72.8324   28.1261  -73.8811 H         1 UNK         0.3453 
     85 H85       -73.0786   27.1565  -72.4577 H         1 UNK         0.3453 
     86 H86       -72.6788   29.8717  -74.6288 H         1 UNK         0.2984 
     87 H87       -72.0055   30.8796  -76.7213 H         1 UNK         0.0554 
     88 H88       -70.1815   32.5613  -76.9782 H         1 UNK         0.0847 
     89 H89       -70.0789   31.3176  -78.2120 H         1 UNK         0.0847 
     90 H90       -68.9696   31.2956  -76.8412 H         1 UNK         0.0847 
     91 H91       -69.7952   28.9947  -76.9050 H         1 UNK         0.3141 
     92 H92       -70.3234   26.8382  -77.4179 H         1 UNK         0.0743 
     93 H93       -71.1751   26.1774  -74.5346 H         1 UNK         0.0784 
     94 H94       -70.0500   25.2359  -75.5105 H         1 UNK         0.0784 
     95 H95       -69.6246   26.8634  -75.0038 H         1 UNK         0.0784 
     96 H96       -73.0646   26.1164  -76.5287 H         1 UNK         0.3213 
     97 H97       -73.5778   24.3689  -79.5221 H         1 UNK         0.0855 
     98 H98       -73.4176   22.8675  -76.8494 H         1 UNK         0.0814 
     99 H99       -72.5598   22.4098  -78.3156 H         1 UNK         0.0814 
    100 H100      -74.3136   22.3552  -78.2793 H         1 UNK         0.0814 
    101 H101      -75.2502   24.4728  -77.2430 H         1 UNK         0.3105 
    102 H102      -76.0741   27.8106  -77.0950 H         1 UNK         0.0547 
    103 H103      -77.4493   27.4445  -79.1274 H         1 UNK         0.0837 
    104 H104      -77.8832   25.8339  -78.5777 H         1 UNK         0.0837 
    105 H105      -78.4409   27.2516  -77.6899 H         1 UNK         0.0837 
    106 H106      -77.5670   25.7058  -76.0386 H         1 UNK         0.3020 
    107 H107      -75.5453   25.0252  -73.1627 H         1 UNK         0.1245 
    108 H108      -78.2345   26.3627  -73.7913 H         1 UNK         0.0781 
    109 H109      -76.9134   27.1077  -72.9497 H         1 UNK         0.0781 
    110 H110      -76.2172   26.2962  -70.2786 H         1 UNK         0.0836 
    111 H111      -77.6982   26.2631  -69.3522 H         1 UNK         0.0836 
    112 H112      -77.9311   23.9533  -74.5106 H         1 UNK         0.3022 
    113 H113      -76.2909   21.0213  -75.6267 H         1 UNK         0.0747 
    114 H114      -77.9742   19.7943  -74.2670 H         1 UNK         0.0793 
    115 H115      -76.6826   20.3901  -73.2386 H         1 UNK         0.0793 
    116 H116      -78.2332   21.2180  -73.2567 H         1 UNK         0.0793 
    117 H117      -79.0506   21.7628  -75.5391 H         1 UNK         0.3047 
    118 H118      -79.1123   23.8815  -78.3688 H         1 UNK         0.0822 
    119 H119      -80.7138   22.2085  -79.2405 H         1 UNK         0.0807 
    120 H120      -80.1082   20.9932  -78.1140 H         1 UNK         0.0807 
    121 H121      -79.0742   21.6036  -79.3981 H         1 UNK         0.0807 
    122 H122      -81.2445   22.8522  -76.8560 H         1 UNK         0.2946 
    123 H123      -82.4174   24.3474  -75.5388 H         1 UNK         0.1144 
    124 H124      -82.2596   23.6755  -73.1296 H         1 UNK         0.0793 
    125 H125      -80.5022   23.7808  -73.1969 H         1 UNK         0.0793 
    126 H126      -81.3528   22.5544  -74.1293 H         1 UNK         0.0793 
    127 H127      -81.5168   26.0398  -73.4427 H         1 UNK         0.2896 
@<TRIPOS>BOND
     1    1    2 1    
     2    1   67 1    
     3    1   68 1    
     4    1   69 1    
     5    2    3 2    
     6    2    4 am   BACKBONE|DICT|INTERRES
     7    4    5 1    
     8    4   70 1    
     9    5    6 1    
    10    5   65 1    
    11    5   71 1    
    12    6    7 1    
    13    6   72 1    
    14    6   73 1    
    15    7    8 1    
    16    8    9 1    
    17    8   74 1    
    18    8   75 1    
    19    9   10 ar   
    20    9   14 ar   
    21   10   11 ar   
    22   10   76 1    
    23   11   12 ar   
    24   11   48 1    
    25   12   13 ar   
    26   12   77 1    
    27   13   14 ar   
    28   13   15 1    
    29   14   78 1    
    30   15   16 1    
    31   15   79 1    
    32   15   80 1    
    33   16   17 1    
    34   17   18 1    
    35   17   81 1    
    36   17   82 1    
    37   18   19 1    
    38   18   22 1    
    39   18   83 1    
    40   19   20 am   BACKBONE|DICT|INTERRES
    41   19   21 2    
    42   20   84 1    
    43   20   85 1    
    44   22   23 am   BACKBONE|DICT|INTERRES
    45   22   86 1    
    46   23   24 2    
    47   23   25 1    
    48   25   26 1    
    49   25   27 1    
    50   25   87 1    
    51   26   88 1    
    52   26   89 1    
    53   26   90 1    
    54   27   28 am   BACKBONE|DICT|INTERRES
    55   27   91 1    
    56   28   29 2    
    57   28   30 1    
    58   30   31 1    
    59   30   32 1    
    60   30   92 1    
    61   31   93 1    
    62   31   94 1    
    63   31   95 1    
    64   32   33 am   BACKBONE|DICT|INTERRES
    65   32   96 1    
    66   33   34 2    
    67   33   35 1    
    68   35   36 1    
    69   35   37 1    
    70   35   97 1    
    71   36   98 1    
    72   36   99 1    
    73   36  100 1    
    74   37   38 am   BACKBONE|DICT|INTERRES
    75   37  101 1    
    76   38   39 2    
    77   38   40 1    
    78   40   41 1    
    79   40   42 1    
    80   40  102 1    
    81   41  103 1    
    82   41  104 1    
    83   41  105 1    
    84   42   43 am   BACKBONE|DICT|INTERRES
    85   42  106 1    
    86   43   44 2    
    87   43   45 1    
    88   45   46 1    
    89   45   49 1    
    90   45  107 1    
    91   46   47 1    
    92   46  108 1    
    93   46  109 1    
    94   47   48 1    
    95   48  110 1    
    96   48  111 1    
    97   49   50 am   BACKBONE|DICT|INTERRES
    98   49  112 1    
    99   50   51 2    
   100   50   52 1    
   101   52   53 1    
   102   52   54 1    
   103   52  113 1    
   104   53  114 1    
   105   53  115 1    
   106   53  116 1    
   107   54   55 am   BACKBONE|DICT|INTERRES
   108   54  117 1    
   109   55   56 2    
   110   55   57 1    
   111   57   58 1    
   112   57   59 1    
   113   57  118 1    
   114   58  119 1    
   115   58  120 1    
   116   58  121 1    
   117   59   60 am   BACKBONE|DICT|INTERRES
   118   59  122 1    
   119   60   61 2    
   120   60   62 1    
   121   62   63 1    
   122   62   64 1    
   123   62  123 1    
   124   63  124 1    
   125   63  125 1    
   126   63  126 1    
   127   64   65 am   BACKBONE|DICT|INTERRES
   128   64  127 1    
   129   65   66 2    
@<TRIPOS>SUBSTRUCTURE
     1 UNK         1 GROUP             0       ****    0 ROOT    
