@<TRIPOS>MOLECULE
3R135
127   129    1
SMALL
USER_CHARGES


@<TRIPOS>ATOM
      1 CA        -84.1468   27.9211  -71.5298 C.3       0 UNK        -0.1998 
      2 C         -83.5288   28.1929  -72.8930 C.2       0 UNK         0.4909 
      3 O         -84.2426   28.2116  -73.8962 O.2       0 UNK        -0.5240 
      4 N         -82.2072   28.4073  -72.9340 N.am      1 UNK        -0.4739 
      5 CA        -81.4345   28.6646  -74.1574 C.3       1 UNK         0.0864 
      6 C6        -80.0291   29.2370  -73.8465 C.3       11 UNK        -0.0881 
      7 S7        -80.0939   30.8712  -73.0264 S.3       11 UNK        -0.2682 
      8 C8        -80.0169   30.4750  -71.2456 C.3       11 UNK         0.0289 
      9 C9        -78.6727   29.8913  -70.8381 C.ar      11 UNK        -0.0687 
     10 C10       -78.5081   28.5066  -70.7422 C.ar      11 UNK        -0.0823 
     11 C11       -77.2623   27.9562  -70.4256 C.ar      11 UNK        -0.0830 
     12 C12       -76.1918   28.8100  -70.1479 C.ar      11 UNK        -0.1021 
     13 C13       -76.3504   30.1981  -70.2051 C.ar      11 UNK        -0.0753 
     14 C14       -77.5935   30.7340  -70.5546 C.ar      11 UNK        -0.0933 
     15 C15       -75.1730   31.1097  -69.8839 C.3       11 UNK         0.0166 
     16 S16       -74.6147   32.1273  -71.2935 S.3       11 UNK        -0.2615 
     17 C17       -74.5572   30.9663  -72.7034 C.3       11 UNK        -0.0865 
     18 CA        -73.1838   30.2596  -72.9111 C.3       10 UNK         0.0862 
     19 C         -73.0701   28.9299  -72.1128 C.2       10 UNK         0.5551 
     20 N         -73.2189   27.7631  -72.7265 N.am      10 UNK        -0.7319 
     21 O         -72.7898   28.9527  -70.9181 O.2       10 UNK        -0.5018 
     22 N         -72.7758   30.1327  -74.3210 N.am      10 UNK        -0.4509 
     23 C         -73.5218   29.7742  -75.3724 C.2       10 UNK         0.4899 
     24 O         -74.7355   29.5796  -75.3312 O.2       10 UNK        -0.4839 
     25 CA        -72.7768   29.5839  -76.7051 C.3       9 UNK         0.0222 
     26 CB        -71.7944   30.7312  -77.0264 C.3       9 UNK        -0.1966 
     27 N         -72.1343   28.2678  -76.7801 N.am      9 UNK        -0.4218 
     28 C         -71.1520   27.7760  -76.0062 C.2       9 UNK         0.5020 
     29 O         -70.5218   28.4548  -75.1931 O.2       9 UNK        -0.5274 
     30 CA        -70.8286   26.2742  -76.1390 C.3       8 UNK         0.0270 
     31 CB        -70.5428   25.6335  -74.7682 C.3       8 UNK        -0.1976 
     32 N         -71.9329   25.5482  -76.7695 N.am      8 UNK        -0.4313 
     33 C         -71.8647   24.8698  -77.9228 C.2       8 UNK         0.5041 
     34 O         -70.8220   24.7024  -78.5569 O.2       8 UNK        -0.5577 
     35 CA        -73.1802   24.2939  -78.4888 C.3       7 UNK         0.0284 
     36 CB        -73.3096   22.8065  -78.1223 C.3       7 UNK        -0.1958 
     37 N         -74.3923   24.9986  -78.0560 N.am      7 UNK        -0.4454 
     38 C         -74.6408   26.3050  -78.2259 C.2       7 UNK         0.5089 
     39 O         -73.8968   27.0674  -78.8426 O.2       7 UNK        -0.5125 
     40 CA        -75.8803   26.8803  -77.5206 C.3       6 UNK         0.0408 
     41 CB        -77.0960   26.8416  -78.4568 C.3       6 UNK        -0.1791 
     42 N         -76.2123   26.2209  -76.2523 N.am      6 UNK        -0.4762 
     43 C         -75.3966   26.0905  -75.1921 C.2       6 UNK         0.5007 
     44 O         -74.2165   26.4425  -75.1777 O.2       6 UNK        -0.5032 
     45 CA        -75.9952   25.3996  -73.9570 C.3       5 UNK         0.0783 
     46 C46       -76.9789   26.3481  -73.2285 C.3       11 UNK        -0.0857 
     47 S47       -77.8061   25.5668  -71.8006 S.3       11 UNK        -0.2512 
     48 C48       -77.0556   26.4443  -70.3855 C.3       11 UNK         0.0225 
     49 N         -76.6079   24.1361  -74.3679 N.am      5 UNK        -0.4615 
     50 C         -75.9249   23.0070  -74.5985 C.2       4 UNK         0.5053 
     51 O         -74.7187   22.8821  -74.3876 O.2       4 UNK        -0.5105 
     52 CA        -76.7101   21.8161  -75.1775 C.3       4 UNK         0.0263 
     53 CB        -77.2131   20.9057  -74.0459 C.3       4 UNK        -0.1981 
     54 N         -77.8438   22.2178  -76.0141 N.am      4 UNK        -0.4224 
     55 C         -77.7427   22.8771  -77.1776 C.2       3 UNK         0.4895 
     56 O         -76.6730   23.1775  -77.7067 O.2       3 UNK        -0.5091 
     57 CA        -79.0619   23.3220  -77.8341 C.3       3 UNK         0.0250 
     58 CB        -79.6079   22.2127  -78.7468 C.3       3 UNK        -0.1996 
     59 N         -80.0985   23.7248  -76.8749 N.am      3 UNK        -0.4254 
     60 C         -79.9692   24.6962  -75.9592 C.2       2 UNK         0.5004 
     61 O         -78.9363   25.3498  -75.7950 O.2       2 UNK        -0.5226 
     62 CA        -81.1739   24.9075  -75.0266 C.3       2 UNK         0.0269 
     63 CB        -81.1657   23.8475  -73.9117 C.3       2 UNK        -0.1926 
     64 N         -81.2088   26.2319  -74.4013 N.am      2 UNK        -0.4687 
     65 C         -81.3353   27.4033  -75.0433 C.2       1 UNK         0.5165 
     66 O         -81.4197   27.5123  -76.2677 O.2       1 UNK        -0.5079 
     67 H67       -84.6214   26.9402  -71.5223 H         1 UNK         0.0900 
     68 H68       -84.9070   28.6693  -71.3070 H         1 UNK         0.0900 
     69 H69       -83.4045   27.9447  -70.7321 H         1 UNK         0.0900 
     70 H70       -81.6787   28.3918  -72.0756 H         1 UNK         0.2959 
     71 H71       -81.9785   29.4119  -74.7401 H         1 UNK         0.1079 
     72 H72       -79.4410   28.5347  -73.2575 H         1 UNK         0.0837 
     73 H73       -79.4704   29.3746  -74.7746 H         1 UNK         0.0837 
     74 H74       -80.1973   31.3910  -70.6810 H         1 UNK         0.0685 
     75 H75       -80.8277   29.7980  -70.9772 H         1 UNK         0.0685 
     76 H76       -79.3432   27.8512  -70.9452 H         1 UNK         0.1434 
     77 H77       -75.2281   28.3927  -69.8893 H         1 UNK         0.1329 
     78 H78       -77.7161   31.8068  -70.6177 H         1 UNK         0.1335 
     79 H79       -74.3269   30.5322  -69.5109 H         1 UNK         0.0680 
     80 H80       -75.4577   31.7763  -69.0688 H         1 UNK         0.0680 
     81 H81       -74.7830   31.5868  -73.5714 H         1 UNK         0.1032 
     82 H82       -75.3755   30.2459  -72.6635 H         1 UNK         0.1032 
     83 H83       -72.4163   30.9125  -72.4932 H         1 UNK         0.0461 
     84 H84       -73.0998   26.9197  -72.1909 H         1 UNK         0.3453 
     85 H85       -73.4525   27.7073  -73.7097 H         1 UNK         0.3453 
     86 H86       -71.7742   30.1416  -74.4709 H         1 UNK         0.2984 
     87 H87       -73.5374   29.5876  -77.4874 H         1 UNK         0.0554 
     88 H88       -71.3859   30.6244  -78.0312 H         1 UNK         0.0847 
     89 H89       -70.9540   30.7776  -76.3342 H         1 UNK         0.0847 
     90 H90       -72.3004   31.6966  -76.9861 H         1 UNK         0.0847 
     91 H91       -72.5773   27.6311  -77.4350 H         1 UNK         0.3141 
     92 H92       -69.9248   26.2036  -76.7470 H         1 UNK         0.0743 
     93 H93       -69.6909   26.1077  -74.2793 H         1 UNK         0.0784 
     94 H94       -71.3985   25.7249  -74.0979 H         1 UNK         0.0784 
     95 H95       -70.3076   24.5738  -74.8683 H         1 UNK         0.0784 
     96 H96       -72.8362   25.6550  -76.3124 H         1 UNK         0.3213 
     97 H97       -73.1271   24.3779  -79.5761 H         1 UNK         0.0855 
     98 H98       -72.4271   22.2466  -78.4351 H         1 UNK         0.0814 
     99 H99       -74.1705   22.3505  -78.6116 H         1 UNK         0.0814 
    100 H100      -73.4227   22.6661  -77.0463 H         1 UNK         0.0814 
    101 H101      -75.1085   24.4356  -77.6058 H         1 UNK         0.3105 
    102 H102      -75.6688   27.9248  -77.2865 H         1 UNK         0.0547 
    103 H103      -76.9194   27.4484  -79.3458 H         1 UNK         0.0837 
    104 H104      -77.3057   25.8280  -78.7951 H         1 UNK         0.0837 
    105 H105      -77.9915   27.2293  -77.9702 H         1 UNK         0.0837 
    106 H106      -77.1695   25.8870  -76.1558 H         1 UNK         0.3020 
    107 H107      -75.1733   25.1818  -73.2708 H         1 UNK         0.1245 
    108 H108      -77.7623   26.6957  -73.9034 H         1 UNK         0.0781 
    109 H109      -76.4516   27.2474  -72.9048 H         1 UNK         0.0781 
    110 H110      -75.9921   26.2015  -70.3571 H         1 UNK         0.0836 
    111 H111      -77.4862   26.0558  -69.4619 H         1 UNK         0.0836 
    112 H112      -77.5883   24.1838  -74.6127 H         1 UNK         0.3022 
    113 H113      -76.0216   21.2423  -75.8018 H         1 UNK         0.0747 
    114 H114      -77.7025   20.0147  -74.4398 H         1 UNK         0.0793 
    115 H115      -76.3852   20.5684  -73.4204 H         1 UNK         0.0793 
    116 H116      -77.9221   21.4216  -73.3968 H         1 UNK         0.0793 
    117 H117      -78.7667   22.0123  -75.6611 H         1 UNK         0.3047 
    118 H118      -78.8437   24.1907  -78.4557 H         1 UNK         0.0822 
    119 H119      -80.4857   22.5486  -79.2994 H         1 UNK         0.0807 
    120 H120      -79.8861   21.3221  -78.1818 H         1 UNK         0.0807 
    121 H121      -78.8612   21.9113  -79.4831 H         1 UNK         0.0807 
    122 H122      -80.9753   23.2262  -76.9308 H         1 UNK         0.2946 
    123 H123      -82.0858   24.7991  -75.6180 H         1 UNK         0.1144 
    124 H124      -82.0362   23.9472  -73.2628 H         1 UNK         0.0793 
    125 H125      -80.2732   23.9258  -73.2887 H         1 UNK         0.0793 
    126 H126      -81.1890   22.8374  -74.3225 H         1 UNK         0.0793 
    127 H127      -81.1406   26.2523  -73.3951 H         1 UNK         0.2896 
@<TRIPOS>BOND
     1    1    2 1    
     2    1   67 1    
     3    1   68 1    
     4    1   69 1    
     5    2    3 2    
     6    2    4 am   BACKBONE|DICT|INTERRES
     7    4    5 1    
     8    4   70 1    
     9    5    6 1    
    10    5   65 1    
    11    5   71 1    
    12    6    7 1    
    13    6   72 1    
    14    6   73 1    
    15    7    8 1    
    16    8    9 1    
    17    8   74 1    
    18    8   75 1    
    19    9   10 ar   
    20    9   14 ar   
    21   10   11 ar   
    22   10   76 1    
    23   11   12 ar   
    24   11   48 1    
    25   12   13 ar   
    26   12   77 1    
    27   13   14 ar   
    28   13   15 1    
    29   14   78 1    
    30   15   16 1    
    31   15   79 1    
    32   15   80 1    
    33   16   17 1    
    34   17   18 1    
    35   17   81 1    
    36   17   82 1    
    37   18   19 1    
    38   18   22 1    
    39   18   83 1    
    40   19   20 am   BACKBONE|DICT|INTERRES
    41   19   21 2    
    42   20   84 1    
    43   20   85 1    
    44   22   23 am   BACKBONE|DICT|INTERRES
    45   22   86 1    
    46   23   24 2    
    47   23   25 1    
    48   25   26 1    
    49   25   27 1    
    50   25   87 1    
    51   26   88 1    
    52   26   89 1    
    53   26   90 1    
    54   27   28 am   BACKBONE|DICT|INTERRES
    55   27   91 1    
    56   28   29 2    
    57   28   30 1    
    58   30   31 1    
    59   30   32 1    
    60   30   92 1    
    61   31   93 1    
    62   31   94 1    
    63   31   95 1    
    64   32   33 am   BACKBONE|DICT|INTERRES
    65   32   96 1    
    66   33   34 2    
    67   33   35 1    
    68   35   36 1    
    69   35   37 1    
    70   35   97 1    
    71   36   98 1    
    72   36   99 1    
    73   36  100 1    
    74   37   38 am   BACKBONE|DICT|INTERRES
    75   37  101 1    
    76   38   39 2    
    77   38   40 1    
    78   40   41 1    
    79   40   42 1    
    80   40  102 1    
    81   41  103 1    
    82   41  104 1    
    83   41  105 1    
    84   42   43 am   BACKBONE|DICT|INTERRES
    85   42  106 1    
    86   43   44 2    
    87   43   45 1    
    88   45   46 1    
    89   45   49 1    
    90   45  107 1    
    91   46   47 1    
    92   46  108 1    
    93   46  109 1    
    94   47   48 1    
    95   48  110 1    
    96   48  111 1    
    97   49   50 am   BACKBONE|DICT|INTERRES
    98   49  112 1    
    99   50   51 2    
   100   50   52 1    
   101   52   53 1    
   102   52   54 1    
   103   52  113 1    
   104   53  114 1    
   105   53  115 1    
   106   53  116 1    
   107   54   55 am   BACKBONE|DICT|INTERRES
   108   54  117 1    
   109   55   56 2    
   110   55   57 1    
   111   57   58 1    
   112   57   59 1    
   113   57  118 1    
   114   58  119 1    
   115   58  120 1    
   116   58  121 1    
   117   59   60 am   BACKBONE|DICT|INTERRES
   118   59  122 1    
   119   60   61 2    
   120   60   62 1    
   121   62   63 1    
   122   62   64 1    
   123   62  123 1    
   124   63  124 1    
   125   63  125 1    
   126   63  126 1    
   127   64   65 am   BACKBONE|DICT|INTERRES
   128   64  127 1    
   129   65   66 2    
@<TRIPOS>SUBSTRUCTURE
     1 UNK         1 GROUP             0       ****    0 ROOT    
