@<TRIPOS>MOLECULE
3R135
127   129    1
SMALL
USER_CHARGES


@<TRIPOS>ATOM
      1 CA        -83.1633   30.3975  -77.0527 C.3       0 UNK        -0.1998 
      2 C         -83.2523   30.2706  -75.5340 C.2       0 UNK         0.4909 
      3 O         -84.2323   30.7271  -74.9485 O.2       0 UNK        -0.5240 
      4 N         -82.2673   29.6728  -74.8473 N.am      1 UNK        -0.4739 
      5 CA        -81.0615   29.0246  -75.3844 C.3       1 UNK         0.0864 
      6 C6        -79.9996   28.8033  -74.2768 C.3       11 UNK        -0.0881 
      7 S7        -80.6048   27.8254  -72.8549 S.3       11 UNK        -0.2682 
      8 C8        -79.5688   28.4734  -71.5068 C.3       11 UNK         0.0289 
      9 C9        -78.1792   27.8548  -71.5235 C.ar      11 UNK        -0.0687 
     10 C10       -77.9606   26.6265  -70.8929 C.ar      11 UNK        -0.0823 
     11 C11       -76.6886   26.0484  -70.8842 C.ar      11 UNK        -0.0830 
     12 C12       -75.6316   26.7059  -71.5155 C.ar      11 UNK        -0.1021 
     13 C13       -75.8375   27.9310  -72.1551 C.ar      11 UNK        -0.0753 
     14 C14       -77.1128   28.5058  -72.1535 C.ar      11 UNK        -0.0933 
     15 C15       -74.6788   28.6043  -72.8703 C.3       11 UNK         0.0166 
     16 S16       -73.4878   29.3186  -71.6914 S.3       11 UNK        -0.2615 
     17 C17       -73.6970   31.1117  -71.9844 C.3       11 UNK        -0.0865 
     18 CA        -72.6546   31.6937  -72.9781 C.3       10 UNK         0.0862 
     19 C         -71.2424   31.8469  -72.3355 C.2       10 UNK         0.5551 
     20 N         -70.1970   31.2012  -72.8411 N.am      10 UNK        -0.7319 
     21 O         -71.0923   32.5830  -71.3632 O.2       10 UNK        -0.5018 
     22 N         -72.6767   30.9590  -74.2493 N.am      10 UNK        -0.4509 
     23 C         -72.2388   31.4130  -75.4272 C.2       10 UNK         0.4899 
     24 O         -71.8610   32.5698  -75.6182 O.2       10 UNK        -0.4839 
     25 CA        -72.2262   30.3901  -76.5812 C.3       9 UNK         0.0222 
     26 CB        -71.2205   30.7619  -77.6911 C.3       9 UNK        -0.1966 
     27 N         -72.0220   28.9987  -76.1466 N.am      9 UNK        -0.4218 
     28 C         -70.9610   28.4979  -75.4879 C.2       9 UNK         0.5020 
     29 O         -70.0350   29.1940  -75.0683 O.2       9 UNK        -0.5274 
     30 CA        -70.9121   26.9756  -75.2305 C.3       8 UNK         0.0270 
     31 CB        -71.0552   26.6703  -73.7300 C.3       8 UNK        -0.1976 
     32 N         -71.9163   26.2105  -75.9765 N.am      8 UNK        -0.4313 
     33 C         -71.9005   26.0244  -77.3065 C.2       8 UNK         0.5041 
     34 O         -70.9623   26.3672  -78.0267 O.2       8 UNK        -0.5577 
     35 CA        -73.1450   25.3893  -77.9622 C.3       7 UNK         0.0284 
     36 CB        -72.8714   23.9190  -78.3181 C.3       7 UNK        -0.1958 
     37 N         -74.3674   25.4602  -77.1555 N.am      7 UNK        -0.4454 
     38 C         -74.9371   26.5721  -76.6664 C.2       7 UNK         0.5089 
     39 O         -74.5317   27.7104  -76.9037 O.2       7 UNK        -0.5125 
     40 CA        -76.1120   26.3794  -75.6900 C.3       6 UNK         0.0408 
     41 CB        -77.4379   26.6080  -76.4251 C.3       6 UNK        -0.1791 
     42 N         -76.1350   25.0722  -75.0136 N.am      6 UNK        -0.4762 
     43 C         -75.1390   24.5670  -74.2615 C.2       6 UNK         0.5007 
     44 O         -74.0829   25.1701  -74.0597 O.2       6 UNK        -0.5032 
     45 CA        -75.2855   23.1355  -73.6973 C.3       5 UNK         0.0783 
     46 C46       -75.2041   23.0815  -72.1470 C.3       11 UNK        -0.0857 
     47 S47       -76.7996   23.3155  -71.2819 S.3       11 UNK        -0.2512 
     48 C48       -76.4593   24.7216  -70.1809 C.3       11 UNK         0.0225 
     49 N         -76.4495   22.4103  -74.2114 N.am      5 UNK        -0.4615 
     50 C         -76.5884   21.9146  -75.4460 C.2       4 UNK         0.5053 
     51 O         -75.7111   21.9722  -76.3077 O.2       4 UNK        -0.5105 
     52 CA        -77.9517   21.2777  -75.7795 C.3       4 UNK         0.0263 
     53 CB        -77.9031   19.7586  -75.5508 C.3       4 UNK        -0.1981 
     54 N         -79.0765   21.8494  -75.0226 N.am      4 UNK        -0.4224 
     55 C         -79.4732   23.1269  -75.1107 C.2       3 UNK         0.4895 
     56 O         -78.9124   23.9595  -75.8227 O.2       3 UNK        -0.5091 
     57 CA        -80.6435   23.5589  -74.2104 C.3       3 UNK         0.0250 
     58 CB        -80.1169   24.0208  -72.8421 C.3       3 UNK        -0.1996 
     59 N         -81.4228   24.6482  -74.8047 N.am      3 UNK        -0.4254 
     60 C         -82.1960   24.5324  -75.8940 C.2       2 UNK         0.5004 
     61 O         -82.3711   23.4700  -76.4934 O.2       2 UNK        -0.5226 
     62 CA        -82.9290   25.7938  -76.3906 C.3       2 UNK         0.0269 
     63 CB        -84.4430   25.6683  -76.1490 C.3       2 UNK        -0.1926 
     64 N         -82.4591   27.0360  -75.7701 N.am      2 UNK        -0.4687 
     65 C         -81.3679   27.7168  -76.1479 C.2       1 UNK         0.5165 
     66 O         -80.6373   27.3716  -77.0755 O.2       1 UNK        -0.5079 
     67 H67       -83.9328   31.0756  -77.4212 H         1 UNK         0.0900 
     68 H68       -83.3185   29.4317  -77.5322 H         1 UNK         0.0900 
     69 H69       -82.2008   30.7991  -77.3662 H         1 UNK         0.0900 
     70 H70       -82.3567   29.6121  -73.8424 H         1 UNK         0.2959 
     71 H71       -80.6141   29.7040  -76.1122 H         1 UNK         0.1079 
     72 H72       -79.6687   29.7776  -73.9142 H         1 UNK         0.0837 
     73 H73       -79.1038   28.3288  -74.6770 H         1 UNK         0.0837 
     74 H74       -80.0553   28.2486  -70.5565 H         1 UNK         0.0685 
     75 H75       -79.5105   29.5613  -71.5635 H         1 UNK         0.0685 
     76 H76       -78.7842   26.1185  -70.4097 H         1 UNK         0.1434 
     77 H77       -74.6448   26.2631  -71.5193 H         1 UNK         0.1329 
     78 H78       -77.2778   29.4538  -72.6465 H         1 UNK         0.1335 
     79 H79       -74.1641   27.8648  -73.4834 H         1 UNK         0.0680 
     80 H80       -75.0446   29.3607  -73.5659 H         1 UNK         0.0680 
     81 H81       -74.7061   31.3052  -72.3508 H         1 UNK         0.1032 
     82 H82       -73.6438   31.6279  -71.0239 H         1 UNK         0.1032 
     83 H83       -72.9741   32.7138  -73.1997 H         1 UNK         0.0461 
     84 H84       -70.2934   30.5882  -73.6434 H         1 UNK         0.3453 
     85 H85       -69.2935   31.3210  -72.4124 H         1 UNK         0.3453 
     86 H86       -72.9283   29.9852  -74.1794 H         1 UNK         0.2984 
     87 H87       -73.2248   30.4213  -77.0194 H         1 UNK         0.0554 
     88 H88       -71.2413   30.0361  -78.5042 H         1 UNK         0.0847 
     89 H89       -70.1995   30.8103  -77.3110 H         1 UNK         0.0847 
     90 H90       -71.4532   31.7361  -78.1229 H         1 UNK         0.0847 
     91 H91       -72.7656   28.3598  -76.4181 H         1 UNK         0.3141 
     92 H92       -69.9254   26.6334  -75.5495 H         1 UNK         0.0743 
     93 H93       -70.2950   27.1935  -73.1483 H         1 UNK         0.0784 
     94 H94       -72.0263   26.9764  -73.3430 H         1 UNK         0.0784 
     95 H95       -70.9389   25.6051  -73.5295 H         1 UNK         0.0784 
     96 H96       -72.7125   25.8716  -75.4443 H         1 UNK         0.3213 
     97 H97       -73.3346   25.9393  -78.8862 H         1 UNK         0.0855 
     98 H98       -71.9829   23.8264  -78.9445 H         1 UNK         0.0814 
     99 H99       -73.7025   23.4821  -78.8723 H         1 UNK         0.0814 
    100 H100      -72.7071   23.3124  -77.4265 H         1 UNK         0.0814 
    101 H101      -74.7831   24.5769  -76.8933 H         1 UNK         0.3105 
    102 H102      -76.0245   27.1414  -74.9162 H         1 UNK         0.0547 
    103 H103      -78.2865   26.5011  -75.7514 H         1 UNK         0.0837 
    104 H104      -77.5751   25.8991  -77.2425 H         1 UNK         0.0837 
    105 H105      -77.4855   27.6109  -76.8513 H         1 UNK         0.0837 
    106 H106      -76.9717   24.5158  -75.1541 H         1 UNK         0.3020 
    107 H107      -74.4020   22.6116  -74.0704 H         1 UNK         0.1245 
    108 H108      -74.4567   23.7792  -71.7651 H         1 UNK         0.0781 
    109 H109      -74.8403   22.0956  -71.8539 H         1 UNK         0.0781 
    110 H110      -75.4432   24.6593  -69.7882 H         1 UNK         0.0836 
    111 H111      -77.1181   24.6505  -69.3142 H         1 UNK         0.0836 
    112 H112      -77.2215   22.3261  -73.5658 H         1 UNK         0.3022 
    113 H113      -78.1415   21.4582  -76.8398 H         1 UNK         0.0747 
    114 H114      -78.8282   19.2786  -75.8705 H         1 UNK         0.0793 
    115 H115      -77.0915   19.3041  -76.1210 H         1 UNK         0.0793 
    116 H116      -77.7407   19.5125  -74.5006 H         1 UNK         0.0793 
    117 H117      -79.5752   21.2223  -74.4072 H         1 UNK         0.3047 
    118 H118      -81.3109   22.7069  -74.0645 H         1 UNK         0.0822 
    119 H119      -79.6252   23.2018  -72.3169 H         1 UNK         0.0807 
    120 H120      -80.9241   24.3738  -72.2001 H         1 UNK         0.0807 
    121 H121      -79.3904   24.8295  -72.9407 H         1 UNK         0.0807 
    122 H122      -81.3122   25.5636  -74.3931 H         1 UNK         0.2946 
    123 H123      -82.7600   25.8543  -77.4684 H         1 UNK         0.1144 
    124 H124      -84.8440   24.7754  -76.6308 H         1 UNK         0.0793 
    125 H125      -84.9823   26.5232  -76.5575 H         1 UNK         0.0793 
    126 H126      -84.6778   25.5983  -75.0862 H         1 UNK         0.0793 
    127 H127      -83.0004   27.3965  -74.9965 H         1 UNK         0.2896 
@<TRIPOS>BOND
     1    1    2 1    
     2    1   67 1    
     3    1   68 1    
     4    1   69 1    
     5    2    3 2    
     6    2    4 am   BACKBONE|DICT|INTERRES
     7    4    5 1    
     8    4   70 1    
     9    5    6 1    
    10    5   65 1    
    11    5   71 1    
    12    6    7 1    
    13    6   72 1    
    14    6   73 1    
    15    7    8 1    
    16    8    9 1    
    17    8   74 1    
    18    8   75 1    
    19    9   10 ar   
    20    9   14 ar   
    21   10   11 ar   
    22   10   76 1    
    23   11   12 ar   
    24   11   48 1    
    25   12   13 ar   
    26   12   77 1    
    27   13   14 ar   
    28   13   15 1    
    29   14   78 1    
    30   15   16 1    
    31   15   79 1    
    32   15   80 1    
    33   16   17 1    
    34   17   18 1    
    35   17   81 1    
    36   17   82 1    
    37   18   19 1    
    38   18   22 1    
    39   18   83 1    
    40   19   20 am   BACKBONE|DICT|INTERRES
    41   19   21 2    
    42   20   84 1    
    43   20   85 1    
    44   22   23 am   BACKBONE|DICT|INTERRES
    45   22   86 1    
    46   23   24 2    
    47   23   25 1    
    48   25   26 1    
    49   25   27 1    
    50   25   87 1    
    51   26   88 1    
    52   26   89 1    
    53   26   90 1    
    54   27   28 am   BACKBONE|DICT|INTERRES
    55   27   91 1    
    56   28   29 2    
    57   28   30 1    
    58   30   31 1    
    59   30   32 1    
    60   30   92 1    
    61   31   93 1    
    62   31   94 1    
    63   31   95 1    
    64   32   33 am   BACKBONE|DICT|INTERRES
    65   32   96 1    
    66   33   34 2    
    67   33   35 1    
    68   35   36 1    
    69   35   37 1    
    70   35   97 1    
    71   36   98 1    
    72   36   99 1    
    73   36  100 1    
    74   37   38 am   BACKBONE|DICT|INTERRES
    75   37  101 1    
    76   38   39 2    
    77   38   40 1    
    78   40   41 1    
    79   40   42 1    
    80   40  102 1    
    81   41  103 1    
    82   41  104 1    
    83   41  105 1    
    84   42   43 am   BACKBONE|DICT|INTERRES
    85   42  106 1    
    86   43   44 2    
    87   43   45 1    
    88   45   46 1    
    89   45   49 1    
    90   45  107 1    
    91   46   47 1    
    92   46  108 1    
    93   46  109 1    
    94   47   48 1    
    95   48  110 1    
    96   48  111 1    
    97   49   50 am   BACKBONE|DICT|INTERRES
    98   49  112 1    
    99   50   51 2    
   100   50   52 1    
   101   52   53 1    
   102   52   54 1    
   103   52  113 1    
   104   53  114 1    
   105   53  115 1    
   106   53  116 1    
   107   54   55 am   BACKBONE|DICT|INTERRES
   108   54  117 1    
   109   55   56 2    
   110   55   57 1    
   111   57   58 1    
   112   57   59 1    
   113   57  118 1    
   114   58  119 1    
   115   58  120 1    
   116   58  121 1    
   117   59   60 am   BACKBONE|DICT|INTERRES
   118   59  122 1    
   119   60   61 2    
   120   60   62 1    
   121   62   63 1    
   122   62   64 1    
   123   62  123 1    
   124   63  124 1    
   125   63  125 1    
   126   63  126 1    
   127   64   65 am   BACKBONE|DICT|INTERRES
   128   64  127 1    
   129   65   66 2    
@<TRIPOS>SUBSTRUCTURE
     1 UNK         1 GROUP             0       ****    0 ROOT    
