@<TRIPOS>MOLECULE
3R135
127   129    1
SMALL
USER_CHARGES


@<TRIPOS>ATOM
      1 CA        -83.6013   27.5581  -70.9069 C.3       0 UNK        -0.1998 
      2 C         -83.1512   28.0145  -72.2865 C.2       0 UNK         0.4909 
      3 O         -83.9811   28.1625  -73.1840 O.2       0 UNK        -0.5240 
      4 N         -81.8423   28.2408  -72.4589 N.am      1 UNK        -0.4739 
      5 CA        -81.2224   28.6646  -73.7217 C.3       1 UNK         0.0864 
      6 C6        -79.7914   29.2137  -73.4998 C.3       11 UNK        -0.0881 
      7 S7        -79.7719   30.7995  -72.5859 S.3       11 UNK        -0.2682 
      8 C8        -79.5687   30.3202  -70.8358 C.3       11 UNK         0.0289 
      9 C9        -78.2690   29.5719  -70.5800 C.ar      11 UNK        -0.0687 
     10 C10       -78.2797   28.1810  -70.4554 C.ar      11 UNK        -0.0823 
     11 C11       -77.0871   27.4715  -70.2929 C.ar      11 UNK        -0.0830 
     12 C12       -75.8819   28.1714  -70.1857 C.ar      11 UNK        -0.1021 
     13 C13       -75.8603   29.5664  -70.2722 C.ar      11 UNK        -0.0753 
     14 C14       -77.0573   30.2624  -70.4755 C.ar      11 UNK        -0.0933 
     15 C15       -74.5409   30.3150  -70.1385 C.3       11 UNK         0.0166 
     16 S16       -73.4486   30.0653  -71.5764 S.3       11 UNK        -0.2615 
     17 C17       -74.3590   30.9377  -72.8959 C.3       11 UNK        -0.0865 
     18 CA        -74.7306   30.0000  -74.0838 C.3       10 UNK         0.0862 
     19 C         -75.7438   30.6599  -75.0674 C.2       10 UNK         0.5551 
     20 N         -76.8904   31.1043  -74.5722 N.am      10 UNK        -0.7319 
     21 O         -75.5278   30.7579  -76.2739 O.2       10 UNK        -0.5018 
     22 N         -73.5605   29.4128  -74.7654 N.am      10 UNK        -0.4509 
     23 C         -72.5756   30.0778  -75.3880 C.2       10 UNK         0.4899 
     24 O         -72.4462   31.3026  -75.3498 O.2       10 UNK        -0.4839 
     25 CA        -71.5911   29.2626  -76.2512 C.3       9 UNK         0.0222 
     26 CB        -70.1567   29.8354  -76.2294 C.3       9 UNK        -0.1966 
     27 N         -71.6060   27.8147  -76.0084 N.am      9 UNK        -0.4218 
     28 C         -71.1130   27.1411  -74.9560 C.2       9 UNK         0.5020 
     29 O         -70.5564   27.6814  -73.9994 O.2       9 UNK        -0.5274 
     30 CA        -71.2527   25.6029  -74.9667 C.3       8 UNK         0.0270 
     31 CB        -71.6901   25.0640  -73.5915 C.3       8 UNK        -0.1976 
     32 N         -72.2066   25.1419  -75.9786 N.am      8 UNK        -0.4313 
     33 C         -71.8971   24.6810  -77.1981 C.2       8 UNK         0.5041 
     34 O         -70.7423   24.5088  -77.5891 O.2       8 UNK        -0.5577 
     35 CA        -73.0652   24.3905  -78.1640 C.3       7 UNK         0.0284 
     36 CB        -73.3824   22.8868  -78.1862 C.3       7 UNK        -0.1958 
     37 N         -74.2913   25.1383  -77.8620 N.am      7 UNK        -0.4454 
     38 C         -74.4054   26.4740  -77.8922 C.2       7 UNK         0.5089 
     39 O         -73.4997   27.2265  -78.2499 O.2       7 UNK        -0.5125 
     40 CA        -75.7115   27.0731  -77.3409 C.3       6 UNK         0.0408 
     41 CB        -76.7959   27.1211  -78.4265 C.3       6 UNK        -0.1791 
     42 N         -76.2163   26.3587  -76.1629 N.am      6 UNK        -0.4762 
     43 C         -75.5437   26.2077  -75.0120 C.2       6 UNK         0.5007 
     44 O         -74.4288   26.6844  -74.8115 O.2       6 UNK        -0.5032 
     45 CA        -76.1975   25.3455  -73.9213 C.3       5 UNK         0.0783 
     46 C46       -77.2465   26.1682  -73.1461 C.3       11 UNK        -0.0857 
     47 S47       -77.9769   25.2513  -71.7447 S.3       11 UNK        -0.2512 
     48 C48       -77.0892   25.9473  -70.3047 C.3       11 UNK         0.0225 
     49 N         -76.7509   24.1255  -74.5073 N.am      5 UNK        -0.4615 
     50 C         -76.0174   23.0731  -74.8913 C.2       4 UNK         0.5053 
     51 O         -74.8028   22.9869  -74.7144 O.2       4 UNK        -0.5105 
     52 CA        -76.7580   21.9348  -75.6161 C.3       4 UNK         0.0263 
     53 CB        -77.2434   20.8832  -74.6060 C.3       4 UNK        -0.1981 
     54 N         -77.8956   22.4057  -76.4119 N.am      4 UNK        -0.4224 
     55 C         -77.7921   23.1824  -77.5004 C.2       3 UNK         0.4895 
     56 O         -76.7191   23.5349  -77.9893 O.2       3 UNK        -0.5091 
     57 CA        -79.1082   23.6998  -78.1106 C.3       3 UNK         0.0250 
     58 CB        -79.6699   22.6855  -79.1192 C.3       3 UNK        -0.1996 
     59 N         -80.1354   24.0241  -77.1110 N.am      3 UNK        -0.4254 
     60 C         -79.9888   24.9325  -76.1356 C.2       2 UNK         0.5004 
     61 O         -78.9595   25.5899  -75.9741 O.2       2 UNK        -0.5226 
     62 CA        -81.1544   25.0617  -75.1384 C.3       2 UNK         0.0269 
     63 CB        -81.1721   23.8520  -74.1873 C.3       2 UNK        -0.1926 
     64 N         -81.1007   26.2803  -74.3240 N.am      2 UNK        -0.4687 
     65 C         -81.2336   27.5359  -74.7785 C.2       1 UNK         0.5165 
     66 O         -81.4048   27.8200  -75.9651 O.2       1 UNK        -0.5079 
     67 H67       -82.7672   27.4778  -70.2101 H         1 UNK         0.0900 
     68 H68       -84.3202   28.2655  -70.4943 H         1 UNK         0.0900 
     69 H69       -84.0826   26.5827  -70.9734 H         1 UNK         0.0900 
     70 H70       -81.2133   28.1131  -71.6818 H         1 UNK         0.2959 
     71 H71       -81.8310   29.4736  -74.1333 H         1 UNK         0.1079 
     72 H72       -79.3121   29.4049  -74.4622 H         1 UNK         0.0837 
     73 H73       -79.1610   28.4780  -73.0032 H         1 UNK         0.0837 
     74 H74       -79.5875   31.2241  -70.2252 H         1 UNK         0.0685 
     75 H75       -80.4269   29.7286  -70.5161 H         1 UNK         0.0685 
     76 H76       -79.2113   27.6393  -70.5371 H         1 UNK         0.1434 
     77 H77       -74.9524   27.6334  -70.0569 H         1 UNK         0.1329 
     78 H78       -77.0491   31.3408  -70.5574 H         1 UNK         0.1335 
     79 H79       -74.0243   29.9663  -69.2432 H         1 UNK         0.0680 
     80 H80       -74.7100   31.3833  -69.9943 H         1 UNK         0.0680 
     81 H81       -75.2534   31.3838  -72.4615 H         1 UNK         0.1032 
     82 H82       -73.7590   31.7830  -73.2330 H         1 UNK         0.1032 
     83 H83       -75.2645   29.1443  -73.6684 H         1 UNK         0.0461 
     84 H84       -77.1234   31.0046  -73.5970 H         1 UNK         0.3453 
     85 H85       -77.5534   31.5308  -75.1995 H         1 UNK         0.3453 
     86 H86       -73.6016   28.4029  -74.8659 H         1 UNK         0.2984 
     87 H87       -71.9561   29.3749  -77.2730 H         1 UNK         0.0554 
     88 H88       -70.1383   30.8577  -76.6090 H         1 UNK         0.0847 
     89 H89       -69.4834   29.2489  -76.8542 H         1 UNK         0.0847 
     90 H90       -69.7447   29.8614  -75.2203 H         1 UNK         0.0847 
     91 H91       -72.0803   27.2813  -76.7292 H         1 UNK         0.3141 
     92 H92       -70.2626   25.1973  -75.1837 H         1 UNK         0.0743 
     93 H93       -72.6346   25.5001  -73.2659 H         1 UNK         0.0784 
     94 H94       -71.8116   23.9807  -73.6102 H         1 UNK         0.0784 
     95 H95       -70.9469   25.2923  -72.8265 H         1 UNK         0.0784 
     96 H96       -73.1828   25.2892  -75.7488 H         1 UNK         0.3213 
     97 H97       -72.7391   24.6858  -79.1635 H         1 UNK         0.0855 
     98 H98       -73.7300   22.5344  -77.2147 H         1 UNK         0.0814 
     99 H99       -72.4979   22.3043  -78.4475 H         1 UNK         0.0814 
    100 H100      -74.1525   22.6538  -78.9219 H         1 UNK         0.0814 
    101 H101      -75.1171   24.5910  -77.6313 H         1 UNK         0.3105 
    102 H102      -75.4985   28.0975  -77.0304 H         1 UNK         0.0547 
    103 H103      -76.4734   27.7341  -79.2690 H         1 UNK         0.0837 
    104 H104      -77.0220   26.1288  -78.8155 H         1 UNK         0.0837 
    105 H105      -77.7219   27.5526  -78.0456 H         1 UNK         0.0837 
    106 H106      -77.1580   25.9746  -76.2235 H         1 UNK         0.3020 
    107 H107      -75.4087   25.0628  -73.2197 H         1 UNK         0.1245 
    108 H108      -78.0640   26.4694  -73.7996 H         1 UNK         0.0781 
    109 H109      -76.8010   27.1012  -72.8018 H         1 UNK         0.0781 
    110 H110      -76.0693   25.5598  -70.3086 H         1 UNK         0.0836 
    111 H111      -77.5553   25.5831  -69.3884 H         1 UNK         0.0836 
    112 H112      -77.7351   24.1514  -74.7319 H         1 UNK         0.3022 
    113 H113      -76.0467   21.4583  -76.2943 H         1 UNK         0.0747 
    114 H114      -77.7037   20.0322  -75.1084 H         1 UNK         0.0793 
    115 H115      -76.4109   20.4973  -74.0158 H         1 UNK         0.0793 
    116 H116      -77.9723   21.2979  -73.9082 H         1 UNK         0.0793 
    117 H117      -78.8177   22.1572  -76.0855 H         1 UNK         0.3047 
    118 H118      -78.8778   24.6205  -78.6495 H         1 UNK         0.0822 
    119 H119      -80.5457   23.0808  -79.6343 H         1 UNK         0.0807 
    120 H120      -79.9564   21.7496  -78.6378 H         1 UNK         0.0807 
    121 H121      -78.9291   22.4453  -79.8835 H         1 UNK         0.0807 
    122 H122      -81.0049   23.5140  -77.1766 H         1 UNK         0.2946 
    123 H123      -82.0854   25.0833  -75.7094 H         1 UNK         0.1144 
    124 H124      -82.0143   23.9036  -73.4968 H         1 UNK         0.0793 
    125 H125      -80.2580   23.7919  -73.5945 H         1 UNK         0.0793 
    126 H126      -81.2684   22.9137  -74.7350 H         1 UNK         0.0793 
    127 H127      -80.9577   26.1510  -73.3338 H         1 UNK         0.2896 
@<TRIPOS>BOND
     1    1    2 1    
     2    1   67 1    
     3    1   68 1    
     4    1   69 1    
     5    2    3 2    
     6    2    4 am   BACKBONE|DICT|INTERRES
     7    4    5 1    
     8    4   70 1    
     9    5    6 1    
    10    5   65 1    
    11    5   71 1    
    12    6    7 1    
    13    6   72 1    
    14    6   73 1    
    15    7    8 1    
    16    8    9 1    
    17    8   74 1    
    18    8   75 1    
    19    9   10 ar   
    20    9   14 ar   
    21   10   11 ar   
    22   10   76 1    
    23   11   12 ar   
    24   11   48 1    
    25   12   13 ar   
    26   12   77 1    
    27   13   14 ar   
    28   13   15 1    
    29   14   78 1    
    30   15   16 1    
    31   15   79 1    
    32   15   80 1    
    33   16   17 1    
    34   17   18 1    
    35   17   81 1    
    36   17   82 1    
    37   18   19 1    
    38   18   22 1    
    39   18   83 1    
    40   19   20 am   BACKBONE|DICT|INTERRES
    41   19   21 2    
    42   20   84 1    
    43   20   85 1    
    44   22   23 am   BACKBONE|DICT|INTERRES
    45   22   86 1    
    46   23   24 2    
    47   23   25 1    
    48   25   26 1    
    49   25   27 1    
    50   25   87 1    
    51   26   88 1    
    52   26   89 1    
    53   26   90 1    
    54   27   28 am   BACKBONE|DICT|INTERRES
    55   27   91 1    
    56   28   29 2    
    57   28   30 1    
    58   30   31 1    
    59   30   32 1    
    60   30   92 1    
    61   31   93 1    
    62   31   94 1    
    63   31   95 1    
    64   32   33 am   BACKBONE|DICT|INTERRES
    65   32   96 1    
    66   33   34 2    
    67   33   35 1    
    68   35   36 1    
    69   35   37 1    
    70   35   97 1    
    71   36   98 1    
    72   36   99 1    
    73   36  100 1    
    74   37   38 am   BACKBONE|DICT|INTERRES
    75   37  101 1    
    76   38   39 2    
    77   38   40 1    
    78   40   41 1    
    79   40   42 1    
    80   40  102 1    
    81   41  103 1    
    82   41  104 1    
    83   41  105 1    
    84   42   43 am   BACKBONE|DICT|INTERRES
    85   42  106 1    
    86   43   44 2    
    87   43   45 1    
    88   45   46 1    
    89   45   49 1    
    90   45  107 1    
    91   46   47 1    
    92   46  108 1    
    93   46  109 1    
    94   47   48 1    
    95   48  110 1    
    96   48  111 1    
    97   49   50 am   BACKBONE|DICT|INTERRES
    98   49  112 1    
    99   50   51 2    
   100   50   52 1    
   101   52   53 1    
   102   52   54 1    
   103   52  113 1    
   104   53  114 1    
   105   53  115 1    
   106   53  116 1    
   107   54   55 am   BACKBONE|DICT|INTERRES
   108   54  117 1    
   109   55   56 2    
   110   55   57 1    
   111   57   58 1    
   112   57   59 1    
   113   57  118 1    
   114   58  119 1    
   115   58  120 1    
   116   58  121 1    
   117   59   60 am   BACKBONE|DICT|INTERRES
   118   59  122 1    
   119   60   61 2    
   120   60   62 1    
   121   62   63 1    
   122   62   64 1    
   123   62  123 1    
   124   63  124 1    
   125   63  125 1    
   126   63  126 1    
   127   64   65 am   BACKBONE|DICT|INTERRES
   128   64  127 1    
   129   65   66 2    
@<TRIPOS>SUBSTRUCTURE
     1 UNK         1 GROUP             0       ****    0 ROOT    
