@<TRIPOS>MOLECULE
3R135
127   129    1
SMALL
USER_CHARGES


@<TRIPOS>ATOM
      1 CA        -78.7886   29.4145  -74.9986 C.3       0 UNK        -0.1998 
      2 C         -80.1590   28.8813  -74.6091 C.2       0 UNK         0.4909 
      3 O         -81.0822   28.9148  -75.4225 O.2       0 UNK        -0.5240 
      4 N         -80.2847   28.3831  -73.3715 N.am      1 UNK        -0.4739 
      5 CA        -81.5014   27.8152  -72.7675 C.3       1 UNK         0.0864 
      6 C6        -82.6171   28.8602  -72.4954 C.3       11 UNK        -0.0881 
      7 S7        -82.0719   30.3709  -71.6146 S.3       11 UNK        -0.2682 
      8 C8        -81.2825   29.7469  -70.0883 C.3       11 UNK         0.0289 
      9 C9        -79.8076   29.4090  -70.2861 C.ar      11 UNK        -0.0687 
     10 C10       -79.3434   28.1037  -70.0821 C.ar      11 UNK        -0.0823 
     11 C11       -78.0030   27.7864  -70.3138 C.ar      11 UNK        -0.0830 
     12 C12       -77.1104   28.7987  -70.6646 C.ar      11 UNK        -0.1021 
     13 C13       -77.5557   30.1018  -70.8954 C.ar      11 UNK        -0.0753 
     14 C14       -78.9071   30.4015  -70.6931 C.ar      11 UNK        -0.0933 
     15 C15       -76.5878   31.1767  -71.3820 C.3       11 UNK         0.0166 
     16 S16       -75.7439   30.7089  -72.9369 S.3       11 UNK        -0.2615 
     17 C17       -74.3024   29.7667  -72.3227 C.3       11 UNK        -0.0865 
     18 CA        -72.9819   30.1838  -73.0179 C.3       10 UNK         0.0862 
     19 C         -71.7392   29.7913  -72.1594 C.2       10 UNK         0.5551 
     20 N         -70.7792   29.0200  -72.6549 N.am      10 UNK        -0.7319 
     21 O         -71.6392   30.2095  -71.0085 O.2       10 UNK        -0.5018 
     22 N         -72.9466   29.7021  -74.4078 N.am      10 UNK        -0.4509 
     23 C         -72.1679   30.2110  -75.3702 C.2       10 UNK         0.4899 
     24 O         -71.4785   31.2229  -75.2303 O.2       10 UNK        -0.4839 
     25 CA        -72.1391   29.4320  -76.6999 C.3       9 UNK         0.0222 
     26 CB        -70.9894   29.8701  -77.6311 C.3       9 UNK        -0.1966 
     27 N         -72.1177   27.9760  -76.5064 N.am      9 UNK        -0.4218 
     28 C         -71.2211   27.2544  -75.8135 C.2       9 UNK         0.5020 
     29 O         -70.2475   27.7468  -75.2422 O.2       9 UNK        -0.5274 
     30 CA        -71.4508   25.7346  -75.6916 C.3       8 UNK         0.0270 
     31 CB        -71.8223   25.3668  -74.2448 C.3       8 UNK        -0.1976 
     32 N         -72.4810   25.2174  -76.5953 N.am      8 UNK        -0.4313 
     33 C         -72.3361   25.0827  -77.9206 C.2       8 UNK         0.5041 
     34 O         -71.2788   25.2851  -78.5188 O.2       8 UNK        -0.5577 
     35 CA        -73.5949   24.7049  -78.7190 C.3       7 UNK         0.0284 
     36 CB        -73.7703   23.1786  -78.7587 C.3       7 UNK        -0.1958 
     37 N         -74.8147   25.3363  -78.2005 N.am      7 UNK        -0.4454 
     38 C         -75.0350   26.6596  -78.1668 C.2       7 UNK         0.5089 
     39 O         -74.2441   27.4938  -78.6045 O.2       7 UNK        -0.5125 
     40 CA        -76.3233   27.1438  -77.4823 C.3       6 UNK         0.0408 
     41 CB        -77.5382   26.9730  -78.4071 C.3       6 UNK        -0.1791 
     42 N         -76.5706   26.4632  -76.2122 N.am      6 UNK        -0.4762 
     43 C         -75.8019   26.5636  -75.1166 C.2       6 UNK         0.5007 
     44 O         -74.8123   27.2932  -75.0269 O.2       6 UNK        -0.5032 
     45 CA        -76.2096   25.6716  -73.9264 C.3       5 UNK         0.0783 
     46 C46       -77.3419   26.3606  -73.1288 C.3       11 UNK        -0.0857 
     47 S47       -78.0001   25.3864  -71.7257 S.3       11 UNK        -0.2512 
     48 C48       -77.5143   26.3458  -70.2464 C.3       11 UNK         0.0225 
     49 N         -76.5776   24.3258  -74.3778 N.am      5 UNK        -0.4615 
     50 C         -75.7366   23.4506  -74.9449 C.2       4 UNK         0.5053 
     51 O         -74.5409   23.6728  -75.1329 O.2       4 UNK        -0.5105 
     52 CA        -76.3440   22.1189  -75.4173 C.3       4 UNK         0.0263 
     53 CB        -76.4987   21.1460  -74.2376 C.3       4 UNK        -0.1981 
     54 N         -77.6368   22.2927  -76.0859 N.am      4 UNK        -0.4224 
     55 C         -77.8047   22.9348  -77.2514 C.2       3 UNK         0.4895 
     56 O         -76.8811   23.4083  -77.9104 O.2       3 UNK        -0.5091 
     57 CA        -79.2490   23.1275  -77.7460 C.3       3 UNK         0.0250 
     58 CB        -79.7098   21.9037  -78.5533 C.3       3 UNK        -0.1996 
     59 N         -80.2158   23.4072  -76.6777 N.am      3 UNK        -0.4254 
     60 C         -80.1261   24.4250  -75.8107 C.2       2 UNK         0.5004 
     61 O         -79.1911   25.2324  -75.7950 O.2       2 UNK        -0.5226 
     62 CA        -81.2432   24.5328  -74.7655 C.3       2 UNK         0.0269 
     63 CB        -81.2092   23.3474  -73.7826 C.3       2 UNK        -0.1926 
     64 N         -81.0515   25.7720  -74.0244 N.am      2 UNK        -0.4687 
     65 C         -82.0015   26.5466  -73.4936 C.2       1 UNK         0.5165 
     66 O         -83.2042   26.2812  -73.5401 O.2       1 UNK        -0.5079 
     67 H67       -78.4170   28.8890  -75.8774 H         1 UNK         0.0900 
     68 H68       -78.8506   30.4763  -75.2346 H         1 UNK         0.0900 
     69 H69       -78.0610   29.2886  -74.1976 H         1 UNK         0.0900 
     70 H70       -79.4943   28.4346  -72.7428 H         1 UNK         0.2959 
     71 H71       -81.2016   27.4234  -71.7997 H         1 UNK         0.1079 
     72 H72       -83.0690   29.1740  -73.4380 H         1 UNK         0.0837 
     73 H73       -83.4229   28.4100  -71.9127 H         1 UNK         0.0837 
     74 H74       -81.3582   30.5178  -69.3204 H         1 UNK         0.0685 
     75 H75       -81.8415   28.8881  -69.7137 H         1 UNK         0.0685 
     76 H76       -80.0294   27.3226  -69.7838 H         1 UNK         0.1434 
     77 H77       -76.0728   28.5476  -70.8128 H         1 UNK         0.1329 
     78 H78       -79.2679   31.4063  -70.8666 H         1 UNK         0.1335 
     79 H79       -77.1259   32.1080  -71.5651 H         1 UNK         0.0680 
     80 H80       -75.8598   31.3999  -70.6012 H         1 UNK         0.0680 
     81 H81       -74.2297   29.9151  -71.2440 H         1 UNK         0.1032 
     82 H82       -74.4829   28.7005  -72.4696 H         1 UNK         0.1032 
     83 H83       -72.9620   31.2750  -73.0500 H         1 UNK         0.0461 
     84 H84       -70.7990   28.6895  -73.6136 H         1 UNK         0.3453 
     85 H85       -69.9901   28.7936  -72.0714 H         1 UNK         0.3453 
     86 H86       -73.4958   28.8736  -74.6119 H         1 UNK         0.2984 
     87 H87       -73.0792   29.6583  -77.2048 H         1 UNK         0.0554 
     88 H88       -71.0656   30.9301  -77.8760 H         1 UNK         0.0847 
     89 H89       -71.0109   29.3191  -78.5713 H         1 UNK         0.0847 
     90 H90       -70.0135   29.7113  -77.1711 H         1 UNK         0.0847 
     91 H91       -72.8913   27.4815  -76.9347 H         1 UNK         0.3141 
     92 H92       -70.5060   25.2446  -75.9355 H         1 UNK         0.0743 
     93 H93       -72.7596   25.8318  -73.9384 H         1 UNK         0.0784 
     94 H94       -71.9289   24.2886  -74.1244 H         1 UNK         0.0784 
     95 H95       -71.0523   25.6955  -73.5455 H         1 UNK         0.0784 
     96 H96       -73.3636   24.9445  -76.1717 H         1 UNK         0.3213 
     97 H97       -73.4519   25.0576  -79.7426 H         1 UNK         0.0855 
     98 H98       -73.9610   22.7686  -77.7664 H         1 UNK         0.0814 
     99 H99       -72.8751   22.6917  -79.1478 H         1 UNK         0.0814 
    100 H100      -74.6006   22.8921  -79.4043 H         1 UNK         0.0814 
    101 H101      -75.5486   24.7082  -77.8779 H         1 UNK         0.3105 
    102 H102      -76.2081   28.2085  -77.2683 H         1 UNK         0.0547 
    103 H103      -77.3993   27.5250  -79.3375 H         1 UNK         0.0837 
    104 H104      -77.7033   25.9284  -78.6702 H         1 UNK         0.0837 
    105 H105      -78.4499   27.3461  -77.9403 H         1 UNK         0.0837 
    106 H106      -77.3938   25.8670  -76.1659 H         1 UNK         0.3020 
    107 H107      -75.3378   25.5757  -73.2755 H         1 UNK         0.1245 
    108 H108      -78.1843   26.5731  -73.7853 H         1 UNK         0.0781 
    109 H109      -76.9918   27.3311  -72.7856 H         1 UNK         0.0781 
    110 H110      -76.4292   26.3084  -70.1386 H         1 UNK         0.0836 
    111 H111      -77.9246   25.8621  -69.3589 H         1 UNK         0.0836 
    112 H112      -77.5532   24.0829  -74.2941 H         1 UNK         0.3022 
    113 H113      -75.6513   21.6759  -76.1361 H         1 UNK         0.0747 
    114 H114      -76.8503   20.1698  -74.5721 H         1 UNK         0.0793 
    115 H115      -75.5431   20.9893  -73.7351 H         1 UNK         0.0793 
    116 H116      -77.2015   21.5194  -73.4915 H         1 UNK         0.0793 
    117 H117      -78.4530   21.9328  -75.6137 H         1 UNK         0.3047 
    118 H118      -79.2482   23.9919  -78.4130 H         1 UNK         0.0822 
    119 H119      -80.6881   22.0706  -79.0046 H         1 UNK         0.0807 
    120 H120      -79.7734   21.0088  -77.9330 H         1 UNK         0.0807 
    121 H121      -79.0141   21.6883  -79.3658 H         1 UNK         0.0807 
    122 H122      -81.0115   22.7878  -76.6187 H         1 UNK         0.2946 
    123 H123      -82.2011   24.5604  -75.2901 H         1 UNK         0.1144 
    124 H124      -81.9892   23.4400  -73.0266 H         1 UNK         0.0793 
    125 H125      -80.2515   23.2822  -73.2638 H         1 UNK         0.0793 
    126 H126      -81.3723   22.3982  -74.2939 H         1 UNK         0.0793 
    127 H127      -80.0975   26.1079  -74.0259 H         1 UNK         0.2896 
@<TRIPOS>BOND
     1    1    2 1    
     2    1   67 1    
     3    1   68 1    
     4    1   69 1    
     5    2    3 2    
     6    2    4 am   BACKBONE|DICT|INTERRES
     7    4    5 1    
     8    4   70 1    
     9    5    6 1    
    10    5   65 1    
    11    5   71 1    
    12    6    7 1    
    13    6   72 1    
    14    6   73 1    
    15    7    8 1    
    16    8    9 1    
    17    8   74 1    
    18    8   75 1    
    19    9   10 ar   
    20    9   14 ar   
    21   10   11 ar   
    22   10   76 1    
    23   11   12 ar   
    24   11   48 1    
    25   12   13 ar   
    26   12   77 1    
    27   13   14 ar   
    28   13   15 1    
    29   14   78 1    
    30   15   16 1    
    31   15   79 1    
    32   15   80 1    
    33   16   17 1    
    34   17   18 1    
    35   17   81 1    
    36   17   82 1    
    37   18   19 1    
    38   18   22 1    
    39   18   83 1    
    40   19   20 am   BACKBONE|DICT|INTERRES
    41   19   21 2    
    42   20   84 1    
    43   20   85 1    
    44   22   23 am   BACKBONE|DICT|INTERRES
    45   22   86 1    
    46   23   24 2    
    47   23   25 1    
    48   25   26 1    
    49   25   27 1    
    50   25   87 1    
    51   26   88 1    
    52   26   89 1    
    53   26   90 1    
    54   27   28 am   BACKBONE|DICT|INTERRES
    55   27   91 1    
    56   28   29 2    
    57   28   30 1    
    58   30   31 1    
    59   30   32 1    
    60   30   92 1    
    61   31   93 1    
    62   31   94 1    
    63   31   95 1    
    64   32   33 am   BACKBONE|DICT|INTERRES
    65   32   96 1    
    66   33   34 2    
    67   33   35 1    
    68   35   36 1    
    69   35   37 1    
    70   35   97 1    
    71   36   98 1    
    72   36   99 1    
    73   36  100 1    
    74   37   38 am   BACKBONE|DICT|INTERRES
    75   37  101 1    
    76   38   39 2    
    77   38   40 1    
    78   40   41 1    
    79   40   42 1    
    80   40  102 1    
    81   41  103 1    
    82   41  104 1    
    83   41  105 1    
    84   42   43 am   BACKBONE|DICT|INTERRES
    85   42  106 1    
    86   43   44 2    
    87   43   45 1    
    88   45   46 1    
    89   45   49 1    
    90   45  107 1    
    91   46   47 1    
    92   46  108 1    
    93   46  109 1    
    94   47   48 1    
    95   48  110 1    
    96   48  111 1    
    97   49   50 am   BACKBONE|DICT|INTERRES
    98   49  112 1    
    99   50   51 2    
   100   50   52 1    
   101   52   53 1    
   102   52   54 1    
   103   52  113 1    
   104   53  114 1    
   105   53  115 1    
   106   53  116 1    
   107   54   55 am   BACKBONE|DICT|INTERRES
   108   54  117 1    
   109   55   56 2    
   110   55   57 1    
   111   57   58 1    
   112   57   59 1    
   113   57  118 1    
   114   58  119 1    
   115   58  120 1    
   116   58  121 1    
   117   59   60 am   BACKBONE|DICT|INTERRES
   118   59  122 1    
   119   60   61 2    
   120   60   62 1    
   121   62   63 1    
   122   62   64 1    
   123   62  123 1    
   124   63  124 1    
   125   63  125 1    
   126   63  126 1    
   127   64   65 am   BACKBONE|DICT|INTERRES
   128   64  127 1    
   129   65   66 2    
@<TRIPOS>SUBSTRUCTURE
     1 UNK         1 GROUP             0       ****    0 ROOT    
