@<TRIPOS>MOLECULE
3R135
127   129    1
SMALL
USER_CHARGES


@<TRIPOS>ATOM
      1 CA        -81.9968   22.5735  -73.6488 C.3       0 UNK        -0.1998 
      2 C         -81.8899   23.9792  -74.2191 C.2       0 UNK         0.4909 
      3 O         -82.3620   24.2244  -75.3300 O.2       0 UNK        -0.5240 
      4 N         -81.2691   24.9057  -73.4737 N.am      1 UNK        -0.4739 
      5 CA        -81.0426   26.2976  -73.8811 C.3       1 UNK         0.0864 
      6 C6        -80.4122   27.1299  -72.7374 C.3       11 UNK        -0.0881 
      7 S7        -80.6653   28.9223  -72.9620 S.3       11 UNK        -0.2682 
      8 C8        -80.1820   29.5731  -71.3300 C.3       11 UNK         0.0289 
      9 C9        -78.6981   29.3802  -71.0443 C.ar      11 UNK        -0.0687 
     10 C10       -78.2642   28.2767  -70.3051 C.ar      11 UNK        -0.0823 
     11 C11       -76.9060   28.0931  -70.0302 C.ar      11 UNK        -0.0830 
     12 C12       -75.9771   29.0254  -70.5023 C.ar      11 UNK        -0.1021 
     13 C13       -76.3962   30.1414  -71.2349 C.ar      11 UNK        -0.0753 
     14 C14       -77.7610   30.3153  -71.4955 C.ar      11 UNK        -0.0933 
     15 C15       -75.3739   31.1714  -71.7042 C.3       11 UNK         0.0166 
     16 S16       -75.4834   31.5006  -73.4919 S.3       11 UNK        -0.2615 
     17 C17       -73.9382   32.4195  -73.7985 C.3       11 UNK        -0.0865 
     18 CA        -72.9325   31.6124  -74.6614 C.3       10 UNK         0.0862 
     19 C         -71.7252   32.5066  -75.0567 C.2       10 UNK         0.5551 
     20 N         -71.7902   33.1642  -76.2062 N.am      10 UNK        -0.7319 
     21 O         -70.7583   32.6455  -74.3094 O.2       10 UNK        -0.5018 
     22 N         -72.5207   30.3695  -73.9911 N.am      10 UNK        -0.4509 
     23 C         -71.7868   29.3952  -74.5442 C.2       10 UNK         0.4899 
     24 O         -71.4088   29.4065  -75.7167 O.2       10 UNK        -0.4839 
     25 CA        -71.3901   28.2121  -73.6419 C.3       9 UNK         0.0222 
     26 CB        -71.9031   28.3227  -72.1889 C.3       9 UNK        -0.1966 
     27 N         -71.8921   26.9723  -74.2302 N.am      9 UNK        -0.4218 
     28 C         -71.1769   26.1010  -74.9533 C.2       9 UNK         0.5020 
     29 O         -69.9675   26.2056  -75.1658 O.2       9 UNK        -0.5274 
     30 CA        -71.9405   24.8976  -75.5355 C.3       8 UNK         0.0270 
     31 CB        -72.2501   23.8603  -74.4430 C.3       8 UNK        -0.1976 
     32 N         -73.1818   25.2871  -76.2071 N.am      8 UNK        -0.4313 
     33 C         -73.2485   25.9669  -77.3615 C.2       8 UNK         0.5041 
     34 O         -72.2647   26.2838  -78.0310 O.2       8 UNK        -0.5577 
     35 CA        -74.6503   26.3661  -77.8508 C.3       7 UNK         0.0284 
     36 CB        -75.3021   25.2288  -78.6542 C.3       7 UNK        -0.1958 
     37 N         -75.5079   26.7468  -76.7267 N.am      7 UNK        -0.4454 
     38 C         -75.4901   27.9620  -76.1607 C.2       7 UNK         0.5089 
     39 O         -74.8797   28.9218  -76.6308 O.2       7 UNK        -0.5125 
     40 CA        -76.2631   28.1478  -74.8444 C.3       6 UNK         0.0408 
     41 CB        -77.5398   28.9689  -75.0626 C.3       6 UNK        -0.1791 
     42 N         -76.5778   26.8878  -74.1624 N.am      6 UNK        -0.4762 
     43 C         -75.6709   26.2100  -73.4461 C.2       6 UNK         0.5007 
     44 O         -74.4956   26.5594  -73.3533 O.2       6 UNK        -0.5032 
     45 CA        -76.1052   24.8896  -72.7759 C.3       5 UNK         0.0783 
     46 C46       -76.7270   25.1127  -71.3764 C.3       11 UNK        -0.0857 
     47 S47       -75.5015   25.6807  -70.1480 S.3       11 UNK        -0.2512 
     48 C48       -76.4503   26.9059  -69.1912 C.3       11 UNK         0.0225 
     49 N         -76.9596   24.0355  -73.6064 N.am      5 UNK        -0.4615 
     50 C         -76.6770   23.6026  -74.8414 C.2       4 UNK         0.5053 
     51 O         -75.7221   24.0057  -75.5055 O.2       4 UNK        -0.5105 
     52 CA        -77.5895   22.5139  -75.4192 C.3       4 UNK         0.0263 
     53 CB        -78.2981   21.6585  -74.3456 C.3       4 UNK        -0.1981 
     54 N         -78.5784   23.1034  -76.3186 N.am      4 UNK        -0.4224 
     55 C         -79.0964   22.4670  -77.3808 C.2       3 UNK         0.4895 
     56 O         -78.7348   21.3440  -77.7364 O.2       3 UNK        -0.5091 
     57 CA        -80.2232   23.1523  -78.1781 C.3       3 UNK         0.0250 
     58 CB        -81.5276   22.3426  -78.0745 C.3       3 UNK        -0.1996 
     59 N         -80.4823   24.5273  -77.7495 N.am      3 UNK        -0.4254 
     60 C         -79.8150   25.5953  -78.2088 C.2       2 UNK         0.5004 
     61 O         -78.9595   25.5344  -79.0910 O.2       2 UNK        -0.5226 
     62 CA        -80.1353   26.9643  -77.5798 C.3       2 UNK         0.0269 
     63 CB        -81.0470   27.7814  -78.5092 C.3       2 UNK        -0.1926 
     64 N         -80.7482   26.8988  -76.2471 N.am      2 UNK        -0.4687 
     65 C         -80.1867   26.3481  -75.1624 C.2       1 UNK         0.5165 
     66 O         -79.0603   25.8452  -75.1556 O.2       1 UNK        -0.5079 
     67 H67       -81.5411   21.8570  -74.3317 H         1 UNK         0.0900 
     68 H68       -81.5015   22.4854  -72.6822 H         1 UNK         0.0900 
     69 H69       -83.0440   22.3016  -73.5203 H         1 UNK         0.0900 
     70 H70       -80.8985   24.6455  -72.5714 H         1 UNK         0.2959 
     71 H71       -82.0278   26.7146  -74.1027 H         1 UNK         0.1079 
     72 H72       -79.3454   26.9238  -72.6357 H         1 UNK         0.0837 
     73 H73       -80.8680   26.8553  -71.7848 H         1 UNK         0.0837 
     74 H74       -80.4249   30.6360  -71.2921 H         1 UNK         0.0685 
     75 H75       -80.7867   29.0979  -70.5560 H         1 UNK         0.0685 
     76 H76       -78.9882   27.5613  -69.9396 H         1 UNK         0.1434 
     77 H77       -74.9271   28.8827  -70.2859 H         1 UNK         0.1329 
     78 H78       -78.0932   31.1773  -72.0576 H         1 UNK         0.1335 
     79 H79       -74.3635   30.8351  -71.4677 H         1 UNK         0.0680 
     80 H80       -75.5289   32.1030  -71.1584 H         1 UNK         0.0680 
     81 H81       -74.2124   33.3465  -74.3061 H         1 UNK         0.1032 
     82 H82       -73.4842   32.7216  -72.8527 H         1 UNK         0.1032 
     83 H83       -73.4419   31.3162  -75.5812 H         1 UNK         0.0461 
     84 H84       -72.5833   33.0619  -76.8204 H         1 UNK         0.3453 
     85 H85       -71.0245   33.7633  -76.4729 H         1 UNK         0.3453 
     86 H86       -72.7822   30.2834  -73.0222 H         1 UNK         0.2984 
     87 H87       -70.2992   28.1933  -73.6046 H         1 UNK         0.0554 
     88 H88       -71.4941   29.2017  -71.6890 H         1 UNK         0.0847 
     89 H89       -71.5972   27.4562  -71.6023 H         1 UNK         0.0847 
     90 H90       -72.9913   28.3801  -72.1366 H         1 UNK         0.0847 
     91 H91       -72.8843   26.7891  -74.0816 H         1 UNK         0.3141 
     92 H92       -71.2956   24.4218  -76.2776 H         1 UNK         0.0743 
     93 H93       -71.3337   23.5210  -73.9584 H         1 UNK         0.0784 
     94 H94       -72.8967   24.2690  -73.6662 H         1 UNK         0.0784 
     95 H95       -72.7424   22.9810  -74.8590 H         1 UNK         0.0784 
     96 H96       -74.0528   24.9965  -75.7724 H         1 UNK         0.3213 
     97 H97       -74.5380   27.2216  -78.5209 H         1 UNK         0.0855 
     98 H98       -75.4405   24.3267  -78.0588 H         1 UNK         0.0814 
     99 H99       -74.6845   24.9583  -79.5116 H         1 UNK         0.0814 
    100 H100      -76.2760   25.5274  -79.0405 H         1 UNK         0.0814 
    101 H101      -76.0046   25.9995  -76.2569 H         1 UNK         0.3105 
    102 H102      -75.6156   28.7286  -74.1856 H         1 UNK         0.0547 
    103 H103      -78.0195   29.1978  -74.1133 H         1 UNK         0.0837 
    104 H104      -77.3135   29.9213  -75.5435 H         1 UNK         0.0837 
    105 H105      -78.2578   28.4509  -75.6908 H         1 UNK         0.0837 
    106 H106      -77.5059   26.4968  -74.3041 H         1 UNK         0.3020 
    107 H107      -75.1876   24.3147  -72.6327 H         1 UNK         0.1245 
    108 H108      -77.1393   24.1770  -70.9956 H         1 UNK         0.0781 
    109 H109      -77.5669   25.8041  -71.4369 H         1 UNK         0.0781 
    110 H110      -75.8275   27.2684  -68.3722 H         1 UNK         0.0836 
    111 H111      -77.3020   26.4080  -68.7248 H         1 UNK         0.0836 
    112 H112      -77.7802   23.6604  -73.1563 H         1 UNK         0.3022 
    113 H113      -76.9311   21.8555  -75.9904 H         1 UNK         0.0747 
    114 H114      -78.8152   20.8126  -74.7992 H         1 UNK         0.0793 
    115 H115      -77.5820   21.2463  -73.6331 H         1 UNK         0.0793 
    116 H116      -79.0372   22.2304  -73.7852 H         1 UNK         0.0793 
    117 H117      -78.8714   24.0510  -76.1006 H         1 UNK         0.3047 
    118 H118      -79.9176   23.1560  -79.2267 H         1 UNK         0.0822 
    119 H119      -81.3963   21.3371  -78.4766 H         1 UNK         0.0807 
    120 H120      -82.3335   22.8122  -78.6388 H         1 UNK         0.0807 
    121 H121      -81.8584   22.2365  -77.0413 H         1 UNK         0.0807 
    122 H122      -81.1707   24.6509  -77.0136 H         1 UNK         0.2946 
    123 H123      -79.1834   27.4894  -77.4917 H         1 UNK         0.1144 
    124 H124      -81.1972   28.7925  -78.1304 H         1 UNK         0.0793 
    125 H125      -82.0264   27.3153  -78.6254 H         1 UNK         0.0793 
    126 H126      -80.6098   27.8732  -79.5047 H         1 UNK         0.0793 
    127 H127      -81.6859   27.2667  -76.1706 H         1 UNK         0.2896 
@<TRIPOS>BOND
     1    1    2 1    
     2    1   67 1    
     3    1   68 1    
     4    1   69 1    
     5    2    3 2    
     6    2    4 am   BACKBONE|DICT|INTERRES
     7    4    5 1    
     8    4   70 1    
     9    5    6 1    
    10    5   65 1    
    11    5   71 1    
    12    6    7 1    
    13    6   72 1    
    14    6   73 1    
    15    7    8 1    
    16    8    9 1    
    17    8   74 1    
    18    8   75 1    
    19    9   10 ar   
    20    9   14 ar   
    21   10   11 ar   
    22   10   76 1    
    23   11   12 ar   
    24   11   48 1    
    25   12   13 ar   
    26   12   77 1    
    27   13   14 ar   
    28   13   15 1    
    29   14   78 1    
    30   15   16 1    
    31   15   79 1    
    32   15   80 1    
    33   16   17 1    
    34   17   18 1    
    35   17   81 1    
    36   17   82 1    
    37   18   19 1    
    38   18   22 1    
    39   18   83 1    
    40   19   20 am   BACKBONE|DICT|INTERRES
    41   19   21 2    
    42   20   84 1    
    43   20   85 1    
    44   22   23 am   BACKBONE|DICT|INTERRES
    45   22   86 1    
    46   23   24 2    
    47   23   25 1    
    48   25   26 1    
    49   25   27 1    
    50   25   87 1    
    51   26   88 1    
    52   26   89 1    
    53   26   90 1    
    54   27   28 am   BACKBONE|DICT|INTERRES
    55   27   91 1    
    56   28   29 2    
    57   28   30 1    
    58   30   31 1    
    59   30   32 1    
    60   30   92 1    
    61   31   93 1    
    62   31   94 1    
    63   31   95 1    
    64   32   33 am   BACKBONE|DICT|INTERRES
    65   32   96 1    
    66   33   34 2    
    67   33   35 1    
    68   35   36 1    
    69   35   37 1    
    70   35   97 1    
    71   36   98 1    
    72   36   99 1    
    73   36  100 1    
    74   37   38 am   BACKBONE|DICT|INTERRES
    75   37  101 1    
    76   38   39 2    
    77   38   40 1    
    78   40   41 1    
    79   40   42 1    
    80   40  102 1    
    81   41  103 1    
    82   41  104 1    
    83   41  105 1    
    84   42   43 am   BACKBONE|DICT|INTERRES
    85   42  106 1    
    86   43   44 2    
    87   43   45 1    
    88   45   46 1    
    89   45   49 1    
    90   45  107 1    
    91   46   47 1    
    92   46  108 1    
    93   46  109 1    
    94   47   48 1    
    95   48  110 1    
    96   48  111 1    
    97   49   50 am   BACKBONE|DICT|INTERRES
    98   49  112 1    
    99   50   51 2    
   100   50   52 1    
   101   52   53 1    
   102   52   54 1    
   103   52  113 1    
   104   53  114 1    
   105   53  115 1    
   106   53  116 1    
   107   54   55 am   BACKBONE|DICT|INTERRES
   108   54  117 1    
   109   55   56 2    
   110   55   57 1    
   111   57   58 1    
   112   57   59 1    
   113   57  118 1    
   114   58  119 1    
   115   58  120 1    
   116   58  121 1    
   117   59   60 am   BACKBONE|DICT|INTERRES
   118   59  122 1    
   119   60   61 2    
   120   60   62 1    
   121   62   63 1    
   122   62   64 1    
   123   62  123 1    
   124   63  124 1    
   125   63  125 1    
   126   63  126 1    
   127   64   65 am   BACKBONE|DICT|INTERRES
   128   64  127 1    
   129   65   66 2    
@<TRIPOS>SUBSTRUCTURE
     1 UNK         1 GROUP             0       ****    0 ROOT    
