@<TRIPOS>MOLECULE
3R135
127   129    1
SMALL
USER_CHARGES


@<TRIPOS>ATOM
      1 CA        -85.5057   26.8101  -72.8322 C.3       0 UNK        -0.1998 
      2 C         -84.4742   27.3587  -73.8065 C.2       0 UNK         0.4909 
      3 O         -84.8280   27.7347  -74.9245 O.2       0 UNK        -0.5240 
      4 N         -83.2026   27.4111  -73.3883 N.am      1 UNK        -0.4739 
      5 CA        -82.0698   27.9013  -74.1876 C.3       1 UNK         0.0864 
      6 C6        -80.8059   28.1148  -73.3194 C.3       11 UNK        -0.0881 
      7 S7        -81.0915   29.3326  -71.9903 S.3       11 UNK        -0.2682 
      8 C8        -79.6292   30.4142  -72.1624 C.3       11 UNK         0.0289 
      9 C9        -78.2955   29.8262  -71.6904 C.ar      11 UNK        -0.0687 
     10 C10       -78.1861   28.5863  -71.0435 C.ar      11 UNK        -0.0823 
     11 C11       -76.9462   28.1166  -70.6012 C.ar      11 UNK        -0.0830 
     12 C12       -75.8026   28.8911  -70.8120 C.ar      11 UNK        -0.1021 
     13 C13       -75.8886   30.1261  -71.4600 C.ar      11 UNK        -0.0753 
     14 C14       -77.1383   30.5864  -71.8882 C.ar      11 UNK        -0.0933 
     15 C15       -74.6380   30.9766  -71.6494 C.3       11 UNK         0.0166 
     16 S16       -74.4078   31.5122  -73.3745 S.3       11 UNK        -0.2615 
     17 C17       -72.7607   32.2967  -73.2755 C.3       11 UNK        -0.0865 
     18 CA        -71.6663   31.5252  -74.0669 C.3       10 UNK         0.0862 
     19 C         -70.3288   32.3180  -74.1451 C.2       10 UNK         0.5551 
     20 N         -69.1706   31.6836  -74.0024 N.am      10 UNK        -0.7319 
     21 O         -70.3354   33.5286  -74.3552 O.2       10 UNK        -0.5018 
     22 N         -71.4870   30.1472  -73.5721 N.am      10 UNK        -0.4509 
     23 C         -71.9525   29.0483  -74.1751 C.2       10 UNK         0.4899 
     24 O         -72.6012   29.0625  -75.2251 O.2       10 UNK        -0.4839 
     25 CA        -71.6499   27.7153  -73.4685 C.3       9 UNK         0.0222 
     26 CB        -72.4587   27.5956  -72.1648 C.3       9 UNK        -0.1966 
     27 N         -72.0250   26.6145  -74.3505 N.am      9 UNK        -0.4218 
     28 C         -71.1861   25.8654  -75.0749 C.2       9 UNK         0.5020 
     29 O         -69.9620   25.8611  -74.9349 O.2       9 UNK        -0.5274 
     30 CA        -71.8287   25.0131  -76.1844 C.3       8 UNK         0.0270 
     31 CB        -72.5492   23.7843  -75.6032 C.3       8 UNK        -0.1976 
     32 N         -72.7664   25.8061  -76.9836 N.am      8 UNK        -0.4313 
     33 C         -72.4232   26.8152  -77.7966 C.2       8 UNK         0.5041 
     34 O         -71.2572   27.0718  -78.1012 O.2       8 UNK        -0.5577 
     35 CA        -73.5454   27.7192  -78.3479 C.3       7 UNK         0.0284 
     36 CB        -73.9642   27.2932  -79.7697 C.3       7 UNK        -0.1958 
     37 N         -74.7046   27.8730  -77.4528 N.am      7 UNK        -0.4454 
     38 C         -75.6196   26.9555  -77.1185 C.2       7 UNK         0.5089 
     39 O         -75.6418   25.8118  -77.5739 O.2       7 UNK        -0.5125 
     40 CA        -76.6560   27.3686  -76.0606 C.3       6 UNK         0.0408 
     41 CB        -77.9797   27.7663  -76.7286 C.3       6 UNK        -0.1791 
     42 N         -76.8933   26.2891  -75.0968 N.am      6 UNK        -0.4762 
     43 C         -75.9547   25.8252  -74.2567 C.2       6 UNK         0.5007 
     44 O         -74.8156   26.2877  -74.2053 O.2       6 UNK        -0.5032 
     45 CA        -76.3089   24.6277  -73.3596 C.3       5 UNK         0.0783 
     46 C46       -77.0602   25.0525  -72.0725 C.3       11 UNK        -0.0857 
     47 S47       -75.8958   25.5408  -70.7562 S.3       11 UNK        -0.2512 
     48 C48       -76.8480   26.7970  -69.8475 C.3       11 UNK         0.0225 
     49 N         -77.0299   23.6013  -74.1155 N.am      5 UNK        -0.4615 
     50 C         -76.6833   22.3054  -74.1507 C.2       4 UNK         0.5053 
     51 O         -75.7529   21.8282  -73.5004 O.2       4 UNK        -0.5105 
     52 CA        -77.5005   21.3660  -75.0604 C.3       4 UNK         0.0263 
     53 CB        -78.5459   20.5974  -74.2359 C.3       4 UNK        -0.1981 
     54 N         -78.1766   22.0675  -76.1507 N.am      4 UNK        -0.4224 
     55 C         -77.5623   22.6788  -77.1727 C.2       3 UNK         0.4895 
     56 O         -76.3624   22.5482  -77.4149 O.2       3 UNK        -0.5091 
     57 CA        -78.4196   23.6032  -78.0638 C.3       3 UNK         0.0250 
     58 CB        -78.5084   23.0453  -79.4943 C.3       3 UNK        -0.1996 
     59 N         -79.7808   23.8712  -77.5738 N.am      3 UNK        -0.4254 
     60 C         -80.1076   24.4724  -76.4206 C.2       2 UNK         0.5004 
     61 O         -79.2837   24.8329  -75.5737 O.2       2 UNK        -0.5226 
     62 CA        -81.6134   24.6080  -76.1402 C.3       2 UNK         0.0269 
     63 CB        -82.1773   23.2779  -75.6123 C.3       2 UNK        -0.1926 
     64 N         -81.9059   25.6572  -75.1639 N.am      2 UNK        -0.4687 
     65 C         -81.7500   26.9715  -75.3757 C.2       1 UNK         0.5165 
     66 O         -81.3910   27.4556  -76.4500 O.2       1 UNK        -0.5079 
     67 H67       -85.9904   25.9305  -73.2552 H         1 UNK         0.0900 
     68 H68       -86.2714   27.5599  -72.6351 H         1 UNK         0.0900 
     69 H69       -85.0573   26.5256  -71.8805 H         1 UNK         0.0900 
     70 H70       -82.9772   27.1209  -72.4472 H         1 UNK         0.2959 
     71 H71       -82.3577   28.8659  -74.6123 H         1 UNK         0.1079 
     72 H72       -80.4826   27.1756  -72.8661 H         1 UNK         0.0837 
     73 H73       -79.9721   28.4523  -73.9379 H         1 UNK         0.0837 
     74 H74       -79.5412   30.7252  -73.2046 H         1 UNK         0.0685 
     75 H75       -79.8202   31.3221  -71.5885 H         1 UNK         0.0685 
     76 H76       -79.0632   27.9846  -70.8573 H         1 UNK         0.1434 
     77 H77       -74.8468   28.5321  -70.4559 H         1 UNK         0.1329 
     78 H78       -77.2095   31.5502  -72.3742 H         1 UNK         0.1335 
     79 H79       -74.7055   31.8549  -71.0062 H         1 UNK         0.0680 
     80 H80       -73.7509   30.4245  -71.3351 H         1 UNK         0.0680 
     81 H81       -72.4625   32.4141  -72.2324 H         1 UNK         0.1032 
     82 H82       -72.8698   33.3095  -73.6678 H         1 UNK         0.1032 
     83 H83       -71.9967   31.4846  -75.1063 H         1 UNK         0.0461 
     84 H84       -68.3124   32.2095  -74.0608 H         1 UNK         0.3453 
     85 H85       -69.1400   30.6845  -73.8799 H         1 UNK         0.3453 
     86 H86       -70.9633   30.0564  -72.7133 H         1 UNK         0.2984 
     87 H87       -70.5843   27.6738  -73.2352 H         1 UNK         0.0554 
     88 H88       -72.3146   26.6223  -71.6955 H         1 UNK         0.0847 
     89 H89       -73.5271   27.7211  -72.3449 H         1 UNK         0.0847 
     90 H90       -72.1586   28.3517  -71.4390 H         1 UNK         0.0847 
     91 H91       -73.0247   26.5467  -74.5354 H         1 UNK         0.3141 
     92 H92       -71.0329   24.6620  -76.8446 H         1 UNK         0.0743 
     93 H93       -73.3687   24.0643  -74.9411 H         1 UNK         0.0784 
     94 H94       -72.9616   23.1563  -76.3935 H         1 UNK         0.0784 
     95 H95       -71.8601   23.1674  -75.0250 H         1 UNK         0.0784 
     96 H96       -73.7577   25.6371  -76.8492 H         1 UNK         0.3213 
     97 H97       -73.1135   28.7186  -78.4238 H         1 UNK         0.0855 
     98 H98       -73.1106   27.3234  -80.4480 H         1 UNK         0.0814 
     99 H99       -74.7252   27.9591  -80.1764 H         1 UNK         0.0814 
    100 H100      -74.3571   26.2766  -79.7957 H         1 UNK         0.0814 
    101 H101      -74.7301   28.7543  -76.9563 H         1 UNK         0.3105 
    102 H102      -76.2760   28.2310  -75.5079 H         1 UNK         0.0547 
    103 H103      -77.8332   28.5894  -77.4289 H         1 UNK         0.0837 
    104 H104      -78.4163   26.9381  -77.2874 H         1 UNK         0.0837 
    105 H105      -78.7114   28.0957  -75.9923 H         1 UNK         0.0837 
    106 H106      -77.7983   25.8278  -75.1518 H         1 UNK         0.3020 
    107 H107      -75.3444   24.2088  -73.0616 H         1 UNK         0.1245 
    108 H108      -77.6421   24.2164  -71.6813 H         1 UNK         0.0781 
    109 H109      -77.7797   25.8494  -72.2705 H         1 UNK         0.0781 
    110 H110      -76.3604   26.9768  -68.8883 H         1 UNK         0.0836 
    111 H111      -77.8370   26.3994  -69.6139 H         1 UNK         0.0836 
    112 H112      -77.8079   23.9209  -74.6846 H         1 UNK         0.3022 
    113 H113      -76.8069   20.6453  -75.4988 H         1 UNK         0.0747 
    114 H114      -79.0872   19.8783  -74.8511 H         1 UNK         0.0793 
    115 H115      -78.0707   20.0376  -73.4289 H         1 UNK         0.0793 
    116 H116      -79.2754   21.2688  -73.7808 H         1 UNK         0.0793 
    117 H117      -79.1678   22.2205  -76.0427 H         1 UNK         0.3047 
    118 H118      -77.8999   24.5616  -78.1061 H         1 UNK         0.0822 
    119 H119      -79.0223   23.7382  -80.1608 H         1 UNK         0.0807 
    120 H120      -79.0379   22.0922  -79.5234 H         1 UNK         0.0807 
    121 H121      -77.5143   22.8788  -79.9120 H         1 UNK         0.0807 
    122 H122      -80.5290   23.5812  -78.1877 H         1 UNK         0.2946 
    123 H123      -82.1175   24.8659  -77.0746 H         1 UNK         0.1144 
    124 H124      -82.0271   22.4701  -76.3299 H         1 UNK         0.0793 
    125 H125      -83.2502   23.3470  -75.4308 H         1 UNK         0.0793 
    126 H126      -81.6989   22.9783  -74.6787 H         1 UNK         0.0793 
    127 H127      -82.1962   25.3559  -74.2456 H         1 UNK         0.2896 
@<TRIPOS>BOND
     1    1    2 1    
     2    1   67 1    
     3    1   68 1    
     4    1   69 1    
     5    2    3 2    
     6    2    4 am   BACKBONE|DICT|INTERRES
     7    4    5 1    
     8    4   70 1    
     9    5    6 1    
    10    5   65 1    
    11    5   71 1    
    12    6    7 1    
    13    6   72 1    
    14    6   73 1    
    15    7    8 1    
    16    8    9 1    
    17    8   74 1    
    18    8   75 1    
    19    9   10 ar   
    20    9   14 ar   
    21   10   11 ar   
    22   10   76 1    
    23   11   12 ar   
    24   11   48 1    
    25   12   13 ar   
    26   12   77 1    
    27   13   14 ar   
    28   13   15 1    
    29   14   78 1    
    30   15   16 1    
    31   15   79 1    
    32   15   80 1    
    33   16   17 1    
    34   17   18 1    
    35   17   81 1    
    36   17   82 1    
    37   18   19 1    
    38   18   22 1    
    39   18   83 1    
    40   19   20 am   BACKBONE|DICT|INTERRES
    41   19   21 2    
    42   20   84 1    
    43   20   85 1    
    44   22   23 am   BACKBONE|DICT|INTERRES
    45   22   86 1    
    46   23   24 2    
    47   23   25 1    
    48   25   26 1    
    49   25   27 1    
    50   25   87 1    
    51   26   88 1    
    52   26   89 1    
    53   26   90 1    
    54   27   28 am   BACKBONE|DICT|INTERRES
    55   27   91 1    
    56   28   29 2    
    57   28   30 1    
    58   30   31 1    
    59   30   32 1    
    60   30   92 1    
    61   31   93 1    
    62   31   94 1    
    63   31   95 1    
    64   32   33 am   BACKBONE|DICT|INTERRES
    65   32   96 1    
    66   33   34 2    
    67   33   35 1    
    68   35   36 1    
    69   35   37 1    
    70   35   97 1    
    71   36   98 1    
    72   36   99 1    
    73   36  100 1    
    74   37   38 am   BACKBONE|DICT|INTERRES
    75   37  101 1    
    76   38   39 2    
    77   38   40 1    
    78   40   41 1    
    79   40   42 1    
    80   40  102 1    
    81   41  103 1    
    82   41  104 1    
    83   41  105 1    
    84   42   43 am   BACKBONE|DICT|INTERRES
    85   42  106 1    
    86   43   44 2    
    87   43   45 1    
    88   45   46 1    
    89   45   49 1    
    90   45  107 1    
    91   46   47 1    
    92   46  108 1    
    93   46  109 1    
    94   47   48 1    
    95   48  110 1    
    96   48  111 1    
    97   49   50 am   BACKBONE|DICT|INTERRES
    98   49  112 1    
    99   50   51 2    
   100   50   52 1    
   101   52   53 1    
   102   52   54 1    
   103   52  113 1    
   104   53  114 1    
   105   53  115 1    
   106   53  116 1    
   107   54   55 am   BACKBONE|DICT|INTERRES
   108   54  117 1    
   109   55   56 2    
   110   55   57 1    
   111   57   58 1    
   112   57   59 1    
   113   57  118 1    
   114   58  119 1    
   115   58  120 1    
   116   58  121 1    
   117   59   60 am   BACKBONE|DICT|INTERRES
   118   59  122 1    
   119   60   61 2    
   120   60   62 1    
   121   62   63 1    
   122   62   64 1    
   123   62  123 1    
   124   63  124 1    
   125   63  125 1    
   126   63  126 1    
   127   64   65 am   BACKBONE|DICT|INTERRES
   128   64  127 1    
   129   65   66 2    
@<TRIPOS>SUBSTRUCTURE
     1 UNK         1 GROUP             0       ****    0 ROOT    
