@<TRIPOS>MOLECULE
3R135
127   129    1
SMALL
USER_CHARGES


@<TRIPOS>ATOM
      1 CA        -85.1879   25.5621  -71.3445 C.3       0 UNK        -0.1998 
      2 C         -84.4349   26.2629  -72.4654 C.2       0 UNK         0.4909 
      3 O         -85.0387   26.6229  -73.4770 O.2       0 UNK        -0.5240 
      4 N         -83.1240   26.4683  -72.2889 N.am      1 UNK        -0.4739 
      5 CA        -82.2310   27.0782  -73.2808 C.3       1 UNK         0.0864 
      6 C6        -80.8833   27.5075  -72.6533 C.3       11 UNK        -0.0881 
      7 S7        -81.1050   28.7775  -71.3601 S.3       11 UNK        -0.2682 
      8 C8        -79.8896   30.0468  -71.8642 C.3       11 UNK         0.0289 
      9 C9        -78.4399   29.5606  -71.8923 C.ar      11 UNK        -0.0687 
     10 C10       -77.9744   28.5872  -71.0011 C.ar      11 UNK        -0.0823 
     11 C11       -76.6544   28.1340  -71.0606 C.ar      11 UNK        -0.0830 
     12 C12       -75.7783   28.6879  -71.9982 C.ar      11 UNK        -0.1021 
     13 C13       -76.2188   29.6834  -72.8755 C.ar      11 UNK        -0.0753 
     14 C14       -77.5499   30.1093  -72.8210 C.ar      11 UNK        -0.0933 
     15 C15       -75.2720   30.2858  -73.9020 C.3       11 UNK         0.0166 
     16 S16       -74.4874   31.8107  -73.2916 S.3       11 UNK        -0.2615 
     17 C17       -73.0589   31.1578  -72.3580 C.3       11 UNK        -0.0865 
     18 CA        -71.7341   31.2501  -73.1622 C.3       10 UNK         0.0862 
     19 C         -70.5062   30.8704  -72.2813 C.2       10 UNK         0.5551 
     20 N         -69.6858   29.8922  -72.6488 N.am      10 UNK        -0.7319 
     21 O         -70.2886   31.4862  -71.2408 O.2       10 UNK        -0.5018 
     22 N         -71.8212   30.5026  -74.4253 N.am      10 UNK        -0.4509 
     23 C         -71.1140   30.7602  -75.5310 C.2       10 UNK         0.4899 
     24 O         -70.3461   31.7166  -75.6474 O.2       10 UNK        -0.4839 
     25 CA        -71.3010   29.7677  -76.6978 C.3       9 UNK         0.0222 
     26 CB        -70.1269   29.7974  -77.6989 C.3       9 UNK        -0.1966 
     27 N         -71.5711   28.3895  -76.2597 N.am      9 UNK        -0.4218 
     28 C         -70.7892   27.6194  -75.4812 C.2       9 UNK         0.5020 
     29 O         -69.7264   28.0061  -74.9925 O.2       9 UNK        -0.5274 
     30 CA        -71.2754   26.1955  -75.1446 C.3       8 UNK         0.0270 
     31 CB        -71.6267   26.0948  -73.6500 C.3       8 UNK        -0.1976 
     32 N         -72.4272   25.7658  -75.9429 N.am      8 UNK        -0.4313 
     33 C         -72.3639   25.4125  -77.2371 C.2       8 UNK         0.5041 
     34 O         -71.3056   25.3128  -77.8591 O.2       8 UNK        -0.5577 
     35 CA        -73.6890   25.1555  -77.9850 C.3       7 UNK         0.0284 
     36 CB        -73.9084   23.6483  -78.1905 C.3       7 UNK        -0.1958 
     37 N         -74.8722   25.7265  -77.3352 N.am      7 UNK        -0.4454 
     38 C         -75.0781   27.0298  -77.0945 C.2       7 UNK         0.5089 
     39 O         -74.3074   27.9212  -77.4521 O.2       7 UNK        -0.5125 
     40 CA        -76.3070   27.3929  -76.2405 C.3       6 UNK         0.0408 
     41 CB        -77.4655   27.8560  -77.1354 C.3       6 UNK        -0.1791 
     42 N         -76.7565   26.3220  -75.3360 N.am      6 UNK        -0.4762 
     43 C         -75.9956   25.7924  -74.3610 C.2       6 UNK         0.5007 
     44 O         -74.8234   26.1283  -74.1879 O.2       6 UNK        -0.5032 
     45 CA        -76.5745   24.6640  -73.4837 C.3       5 UNK         0.0783 
     46 C46       -77.0710   25.1505  -72.0985 C.3       11 UNK        -0.0857 
     47 S47       -75.6753   25.5123  -70.9713 S.3       11 UNK        -0.2512 
     48 C48       -76.1923   27.0357  -70.1125 C.3       11 UNK         0.0225 
     49 N         -77.5824   23.8706  -74.1929 N.am      5 UNK        -0.4615 
     50 C         -77.6775   22.5360  -74.0961 C.2       4 UNK         0.5053 
     51 O         -76.9930   21.8578  -73.3291 O.2       4 UNK        -0.5105 
     52 CA        -78.6842   21.8144  -75.0142 C.3       4 UNK         0.0263 
     53 CB        -79.9873   21.5226  -74.2529 C.3       4 UNK        -0.1981 
     54 N         -79.0031   22.5482  -76.2398 N.am      4 UNK        -0.4224 
     55 C         -78.1259   22.9105  -77.1868 C.2       3 UNK         0.4895 
     56 O         -76.9461   22.5613  -77.1952 O.2       3 UNK        -0.5091 
     57 CA        -78.6266   23.8630  -78.2899 C.3       3 UNK         0.0250 
     58 CB        -78.7584   23.1122  -79.6249 C.3       3 UNK        -0.1996 
     59 N         -79.8903   24.5598  -78.0056 N.am      3 UNK        -0.4254 
     60 C         -80.1464   25.3500  -76.9523 C.2       2 UNK         0.5004 
     61 O         -79.3395   25.5394  -76.0365 O.2       2 UNK        -0.5226 
     62 CA        -81.5217   26.0475  -76.9406 C.3       2 UNK         0.0269 
     63 CB        -82.6750   25.1028  -77.3505 C.3       2 UNK        -0.1926 
     64 N         -81.8203   26.7067  -75.6618 N.am      2 UNK        -0.4687 
     65 C         -81.9893   26.1220  -74.4662 C.2       1 UNK         0.5165 
     66 O         -81.9368   24.9038  -74.2716 O.2       1 UNK        -0.5079 
     67 H67       -85.9885   26.2012  -70.9732 H         1 UNK         0.0900 
     68 H68       -85.6318   24.6374  -71.7121 H         1 UNK         0.0900 
     69 H69       -84.5354   25.3155  -70.5071 H         1 UNK         0.0900 
     70 H70       -82.6774   26.1450  -71.4431 H         1 UNK         0.2959 
     71 H71       -82.7291   27.9709  -73.6665 H         1 UNK         0.1079 
     72 H72       -80.3694   26.6504  -72.2135 H         1 UNK         0.0837 
     73 H73       -80.2125   27.8964  -73.4226 H         1 UNK         0.0837 
     74 H74       -80.1791   30.4273  -72.8452 H         1 UNK         0.0685 
     75 H75       -79.9585   30.8876  -71.1731 H         1 UNK         0.0685 
     76 H76       -78.6459   28.1635  -70.2677 H         1 UNK         0.1434 
     77 H77       -74.7604   28.3274  -72.0529 H         1 UNK         0.1329 
     78 H78       -77.8921   30.8730  -73.5061 H         1 UNK         0.1335 
     79 H79       -75.8250   30.5261  -74.8113 H         1 UNK         0.0680 
     80 H80       -74.5128   29.5595  -74.1943 H         1 UNK         0.0680 
     81 H81       -73.2485   30.1315  -72.0429 H         1 UNK         0.1032 
     82 H82       -72.9846   31.7406  -71.4379 H         1 UNK         0.1032 
     83 H83       -71.5896   32.3023  -73.4156 H         1 UNK         0.0461 
     84 H84       -68.8970   29.6711  -72.0626 H         1 UNK         0.3453 
     85 H85       -69.8252   29.3795  -73.5126 H         1 UNK         0.3453 
     86 H86       -72.4092   29.6845  -74.4183 H         1 UNK         0.2984 
     87 H87       -72.1958   30.0940  -77.2298 H         1 UNK         0.0554 
     88 H88       -70.0074   30.7899  -78.1350 H         1 UNK         0.0847 
     89 H89       -70.2898   29.1015  -78.5219 H         1 UNK         0.0847 
     90 H90       -69.1818   29.5365  -77.2212 H         1 UNK         0.0847 
     91 H91       -72.4435   27.9978  -76.6020 H         1 UNK         0.3141 
     92 H92       -70.4465   25.5133  -75.3447 H         1 UNK         0.0743 
     93 H93       -70.7538   26.3015  -73.0293 H         1 UNK         0.0784 
     94 H94       -72.4002   26.8094  -73.3662 H         1 UNK         0.0784 
     95 H95       -71.9803   25.0973  -73.3887 H         1 UNK         0.0784 
     96 H96       -73.3337   25.8247  -75.4864 H         1 UNK         0.3213 
     97 H97       -73.5965   25.6251  -78.9666 H         1 UNK         0.0855 
     98 H98       -74.0483   23.1274  -77.2423 H         1 UNK         0.0814 
     99 H99       -73.0530   23.1918  -78.6908 H         1 UNK         0.0814 
    100 H100      -74.7840   23.4551  -78.8109 H         1 UNK         0.0814 
    101 H101      -75.5518   25.0697  -76.9791 H         1 UNK         0.3105 
    102 H102      -76.0198   28.2347  -75.6121 H         1 UNK         0.0547 
    103 H103      -77.1685   28.7117  -77.7432 H         1 UNK         0.0837 
    104 H104      -77.7873   27.0704  -77.8187 H         1 UNK         0.0837 
    105 H105      -78.3269   28.1648  -76.5429 H         1 UNK         0.0837 
    106 H106      -77.7218   26.0209  -75.4586 H         1 UNK         0.3020 
    107 H107      -75.7185   24.0073  -73.3074 H         1 UNK         0.1245 
    108 H108      -77.6659   24.3715  -71.6194 H         1 UNK         0.0781 
    109 H109      -77.7385   26.0053  -72.2076 H         1 UNK         0.0781 
    110 H110      -75.3553   27.4068  -69.5195 H         1 UNK         0.0836 
    111 H111      -76.9788   26.7803  -69.4007 H         1 UNK         0.0836 
    112 H112      -78.1994   24.3617  -74.8309 H         1 UNK         0.3022 
    113 H113      -78.2342   20.8637  -75.3075 H         1 UNK         0.0747 
    114 H114      -80.6787   20.9351  -74.8573 H         1 UNK         0.0793 
    115 H115      -79.7898   20.9530  -73.3437 H         1 UNK         0.0793 
    116 H116      -80.4956   22.4420  -73.9578 H         1 UNK         0.0793 
    117 H117      -79.9448   22.9039  -76.3157 H         1 UNK         0.3047 
    118 H118      -77.8584   24.6295  -78.4084 H         1 UNK         0.0822 
    119 H119      -78.9946   23.7927  -80.4432 H         1 UNK         0.0807 
    120 H120      -79.5380   22.3505  -79.5836 H         1 UNK         0.0807 
    121 H121      -77.8257   22.6097  -79.8861 H         1 UNK         0.0807 
    122 H122      -80.6130   24.4565  -78.7035 H         1 UNK         0.2946 
    123 H123      -81.4610   26.8451  -77.6831 H         1 UNK         0.1144 
    124 H124      -83.6422   25.5959  -77.2501 H         1 UNK         0.0793 
    125 H125      -82.7002   24.1996  -76.7397 H         1 UNK         0.0793 
    126 H126      -82.5895   24.7910  -78.3918 H         1 UNK         0.0793 
    127 H127      -81.8460   27.7161  -75.7011 H         1 UNK         0.2896 
@<TRIPOS>BOND
     1    1    2 1    
     2    1   67 1    
     3    1   68 1    
     4    1   69 1    
     5    2    3 2    
     6    2    4 am   BACKBONE|DICT|INTERRES
     7    4    5 1    
     8    4   70 1    
     9    5    6 1    
    10    5   65 1    
    11    5   71 1    
    12    6    7 1    
    13    6   72 1    
    14    6   73 1    
    15    7    8 1    
    16    8    9 1    
    17    8   74 1    
    18    8   75 1    
    19    9   10 ar   
    20    9   14 ar   
    21   10   11 ar   
    22   10   76 1    
    23   11   12 ar   
    24   11   48 1    
    25   12   13 ar   
    26   12   77 1    
    27   13   14 ar   
    28   13   15 1    
    29   14   78 1    
    30   15   16 1    
    31   15   79 1    
    32   15   80 1    
    33   16   17 1    
    34   17   18 1    
    35   17   81 1    
    36   17   82 1    
    37   18   19 1    
    38   18   22 1    
    39   18   83 1    
    40   19   20 am   BACKBONE|DICT|INTERRES
    41   19   21 2    
    42   20   84 1    
    43   20   85 1    
    44   22   23 am   BACKBONE|DICT|INTERRES
    45   22   86 1    
    46   23   24 2    
    47   23   25 1    
    48   25   26 1    
    49   25   27 1    
    50   25   87 1    
    51   26   88 1    
    52   26   89 1    
    53   26   90 1    
    54   27   28 am   BACKBONE|DICT|INTERRES
    55   27   91 1    
    56   28   29 2    
    57   28   30 1    
    58   30   31 1    
    59   30   32 1    
    60   30   92 1    
    61   31   93 1    
    62   31   94 1    
    63   31   95 1    
    64   32   33 am   BACKBONE|DICT|INTERRES
    65   32   96 1    
    66   33   34 2    
    67   33   35 1    
    68   35   36 1    
    69   35   37 1    
    70   35   97 1    
    71   36   98 1    
    72   36   99 1    
    73   36  100 1    
    74   37   38 am   BACKBONE|DICT|INTERRES
    75   37  101 1    
    76   38   39 2    
    77   38   40 1    
    78   40   41 1    
    79   40   42 1    
    80   40  102 1    
    81   41  103 1    
    82   41  104 1    
    83   41  105 1    
    84   42   43 am   BACKBONE|DICT|INTERRES
    85   42  106 1    
    86   43   44 2    
    87   43   45 1    
    88   45   46 1    
    89   45   49 1    
    90   45  107 1    
    91   46   47 1    
    92   46  108 1    
    93   46  109 1    
    94   47   48 1    
    95   48  110 1    
    96   48  111 1    
    97   49   50 am   BACKBONE|DICT|INTERRES
    98   49  112 1    
    99   50   51 2    
   100   50   52 1    
   101   52   53 1    
   102   52   54 1    
   103   52  113 1    
   104   53  114 1    
   105   53  115 1    
   106   53  116 1    
   107   54   55 am   BACKBONE|DICT|INTERRES
   108   54  117 1    
   109   55   56 2    
   110   55   57 1    
   111   57   58 1    
   112   57   59 1    
   113   57  118 1    
   114   58  119 1    
   115   58  120 1    
   116   58  121 1    
   117   59   60 am   BACKBONE|DICT|INTERRES
   118   59  122 1    
   119   60   61 2    
   120   60   62 1    
   121   62   63 1    
   122   62   64 1    
   123   62  123 1    
   124   63  124 1    
   125   63  125 1    
   126   63  126 1    
   127   64   65 am   BACKBONE|DICT|INTERRES
   128   64  127 1    
   129   65   66 2    
@<TRIPOS>SUBSTRUCTURE
     1 UNK         1 GROUP             0       ****    0 ROOT    
