@<TRIPOS>MOLECULE
3R135
127   129    1
SMALL
USER_CHARGES


@<TRIPOS>ATOM
      1 CA        -75.7585   23.4746  -71.8861 C.3       0 UNK        -0.1998 
      2 C         -76.7641   24.6146  -71.8577 C.2       0 UNK         0.4909 
      3 O         -76.9584   25.2854  -72.8688 O.2       0 UNK        -0.5240 
      4 N         -77.4220   24.8195  -70.7069 N.am      1 UNK        -0.4739 
      5 CA        -78.4241   25.8634  -70.4210 C.3       1 UNK         0.0864 
      6 C6        -77.8982   27.3024  -70.7069 C.3       11 UNK        -0.0881 
      7 S7        -78.3108   28.5201  -69.4038 S.3       11 UNK        -0.2682 
      8 C8        -79.8240   29.3506  -70.0047 C.3       11 UNK         0.0289 
      9 C9        -79.6995   29.8372  -71.4402 C.ar      11 UNK        -0.0687 
     10 C10       -80.3686   29.1654  -72.4669 C.ar      11 UNK        -0.0823 
     11 C11       -80.1962   29.5526  -73.7973 C.ar      11 UNK        -0.0830 
     12 C12       -79.3848   30.6500  -74.0952 C.ar      11 UNK        -0.1021 
     13 C13       -78.6996   31.3194  -73.0785 C.ar      11 UNK        -0.0753 
     14 C14       -78.8766   30.9233  -71.7492 C.ar      11 UNK        -0.0933 
     15 C15       -77.7023   32.4128  -73.4294 C.3       11 UNK         0.0166 
     16 S16       -76.2347   31.7185  -74.2626 S.3       11 UNK        -0.2615 
     17 C17       -75.6743   30.4750  -73.0455 C.3       11 UNK        -0.0865 
     18 CA        -74.1337   30.3998  -72.9408 C.3       10 UNK         0.0862 
     19 C         -73.7105   29.5042  -71.7462 C.2       10 UNK         0.5551 
     20 N         -73.3173   30.1017  -70.6298 N.am      10 UNK        -0.7319 
     21 O         -73.7822   28.2792  -71.8089 O.2       10 UNK        -0.5018 
     22 N         -73.5338   29.9268  -74.1933 N.am      10 UNK        -0.4509 
     23 C         -72.2494   30.0955  -74.5254 C.2       10 UNK         0.4899 
     24 O         -71.4514   30.7758  -73.8775 O.2       10 UNK        -0.4839 
     25 CA        -71.7932   29.3513  -75.7909 C.3       9 UNK         0.0222 
     26 CB        -70.3132   29.5971  -76.1533 C.3       9 UNK        -0.1966 
     27 N         -72.0870   27.9189  -75.6919 N.am      9 UNK        -0.4218 
     28 C         -71.6033   27.0318  -74.8072 C.2       9 UNK         0.5020 
     29 O         -70.7540   27.2898  -73.9533 O.2       9 UNK        -0.5274 
     30 CA        -72.1614   25.5990  -74.8933 C.3       8 UNK         0.0270 
     31 CB        -73.2929   25.4035  -73.8719 C.3       8 UNK        -0.1976 
     32 N         -72.6659   25.2623  -76.2254 N.am      8 UNK        -0.4313 
     33 C         -71.9081   25.0871  -77.3164 C.2       8 UNK         0.5041 
     34 O         -70.6767   25.0747  -77.3063 O.2       8 UNK        -0.5577 
     35 CA        -72.6581   24.9486  -78.6499 C.3       7 UNK         0.0284 
     36 CB        -73.1590   23.5099  -78.8572 C.3       7 UNK        -0.1958 
     37 N         -73.7821   25.8861  -78.7328 N.am      7 UNK        -0.4454 
     38 C         -73.6543   27.2009  -78.9614 C.2       7 UNK         0.5089 
     39 O         -72.5773   27.7565  -79.1746 O.2       7 UNK        -0.5125 
     40 CA        -74.9381   28.0474  -78.9417 C.3       6 UNK         0.0408 
     41 CB        -75.5077   28.1874  -80.3620 C.3       6 UNK        -0.1791 
     42 N         -75.9730   27.5076  -78.0569 N.am      6 UNK        -0.4762 
     43 C         -75.9681   27.6214  -76.7206 C.2       6 UNK         0.5007 
     44 O         -75.0753   28.1808  -76.0808 O.2       6 UNK        -0.5032 
     45 CA        -77.1594   26.9779  -75.9817 C.3       5 UNK         0.0783 
     46 C46       -78.4032   27.8945  -76.0940 C.3       11 UNK        -0.0857 
     47 S47       -79.8781   27.2253  -75.2468 S.3       11 UNK        -0.2512 
     48 C48       -80.8348   28.7407  -74.9118 C.3       11 UNK         0.0225 
     49 N         -77.4608   25.6105  -76.4244 N.am      5 UNK        -0.4615 
     50 C         -76.6083   24.5841  -76.5382 C.2       4 UNK         0.5053 
     51 O         -75.3899   24.6949  -76.4072 O.2       4 UNK        -0.5105 
     52 CA        -77.2056   23.2003  -76.8589 C.3       4 UNK         0.0263 
     53 CB        -76.4037   22.0673  -76.1925 C.3       4 UNK        -0.1981 
     54 N         -78.6047   23.0807  -76.4441 N.am      4 UNK        -0.4224 
     55 C         -79.6819   23.3745  -77.1781 C.2       3 UNK         0.4895 
     56 O         -79.6231   23.8203  -78.3237 O.2       3 UNK        -0.5091 
     57 CA        -81.0583   23.1488  -76.5230 C.3       3 UNK         0.0250 
     58 CB        -81.3996   21.6468  -76.4611 C.3       3 UNK        -0.1996 
     59 N         -81.2433   23.7923  -75.2110 N.am      3 UNK        -0.4254 
     60 C         -80.5919   23.5664  -74.0606 C.2       2 UNK         0.5004 
     61 O         -79.6707   22.7552  -73.9270 O.2       2 UNK        -0.5226 
     62 CA        -81.0600   24.3646  -72.8406 C.3       2 UNK         0.0269 
     63 CB        -82.0807   23.5526  -72.0206 C.3       2 UNK        -0.1926 
     64 N         -79.8840   24.6815  -72.0379 N.am      2 UNK        -0.4687 
     65 C         -79.8052   25.6057  -71.0753 C.2       1 UNK         0.5165 
     66 O         -80.7871   26.2318  -70.6773 O.2       1 UNK        -0.5079 
     67 H67       -75.9930   22.7126  -71.1431 H         1 UNK         0.0900 
     68 H68       -74.7575   23.8542  -71.6848 H         1 UNK         0.0900 
     69 H69       -75.7534   22.9987  -72.8661 H         1 UNK         0.0900 
     70 H70       -77.2261   24.2060  -69.9273 H         1 UNK         0.2959 
     71 H71       -78.5998   25.7759  -69.3476 H         1 UNK         0.1079 
     72 H72       -78.1941   27.6519  -71.6966 H         1 UNK         0.0837 
     73 H73       -76.8075   27.2952  -70.7438 H         1 UNK         0.0837 
     74 H74       -80.6747   28.6783  -69.8952 H         1 UNK         0.0685 
     75 H75       -80.0340   30.2021  -69.3562 H         1 UNK         0.0685 
     76 H76       -80.9870   28.3088  -72.2376 H         1 UNK         0.1434 
     77 H77       -79.2321   30.9464  -75.1241 H         1 UNK         0.1329 
     78 H78       -78.3373   31.4250  -70.9575 H         1 UNK         0.1335 
     79 H79       -77.3870   32.9561  -72.5372 H         1 UNK         0.0680 
     80 H80       -78.1763   33.1431  -74.0867 H         1 UNK         0.0680 
     81 H81       -76.0919   30.7282  -72.0697 H         1 UNK         0.1032 
     82 H82       -76.0968   29.5039  -73.3130 H         1 UNK         0.1032 
     83 H83       -73.7663   31.4116  -72.7549 H         1 UNK         0.0461 
     84 H84       -73.2612   31.1063  -70.5670 H         1 UNK         0.3453 
     85 H85       -73.0556   29.5350  -69.8385 H         1 UNK         0.3453 
     86 H86       -74.1150   29.3310  -74.7754 H         1 UNK         0.2984 
     87 H87       -72.4008   29.7316  -76.6136 H         1 UNK         0.0554 
     88 H88       -70.0372   29.0672  -77.0651 H         1 UNK         0.0847 
     89 H89       -69.6383   29.2745  -75.3601 H         1 UNK         0.0847 
     90 H90       -70.1270   30.6579  -76.3248 H         1 UNK         0.0847 
     91 H91       -72.8291   27.5943  -76.2969 H         1 UNK         0.3141 
     92 H92       -71.3509   24.9088  -74.6504 H         1 UNK         0.0743 
     93 H93       -74.1350   26.0698  -74.0679 H         1 UNK         0.0784 
     94 H94       -73.6677   24.3803  -73.8906 H         1 UNK         0.0784 
     95 H95       -72.9465   25.6089  -72.8581 H         1 UNK         0.0784 
     96 H96       -73.6786   25.1726  -76.3183 H         1 UNK         0.3213 
     97 H97       -71.9551   25.1797  -79.4536 H         1 UNK         0.0855 
     98 H98       -72.3292   22.8026  -78.8270 H         1 UNK         0.0814 
     99 H99       -73.6463   23.3953  -79.8255 H         1 UNK         0.0814 
    100 H100      -73.8688   23.2096  -78.0868 H         1 UNK         0.0814 
    101 H101      -74.6971   25.5250  -78.5030 H         1 UNK         0.3105 
    102 H102      -74.6691   29.0450  -78.5872 H         1 UNK         0.0547 
    103 H103      -76.3751   28.8474  -80.3788 H         1 UNK         0.0837 
    104 H104      -74.7660   28.6140  -81.0388 H         1 UNK         0.0837 
    105 H105      -75.8091   27.2242  -80.7756 H         1 UNK         0.0837 
    106 H106      -76.7437   27.0219  -78.4938 H         1 UNK         0.3020 
    107 H107      -76.8773   26.9109  -74.9289 H         1 UNK         0.1245 
    108 H108      -78.6716   28.0624  -77.1388 H         1 UNK         0.0781 
    109 H109      -78.1635   28.8739  -75.6811 H         1 UNK         0.0781 
    110 H110      -81.8508   28.4639  -74.6265 H         1 UNK         0.0836 
    111 H111      -80.9226   29.3306  -75.8255 H         1 UNK         0.0836 
    112 H112      -78.4421   25.4138  -76.5541 H         1 UNK         0.3022 
    113 H113      -77.1388   23.0689  -77.9407 H         1 UNK         0.0747 
    114 H114      -76.8160   21.0900  -76.4439 H         1 UNK         0.0793 
    115 H115      -76.4062   22.1621  -75.1062 H         1 UNK         0.0793 
    116 H116      -75.3631   22.0688  -76.5182 H         1 UNK         0.0793 
    117 H117      -78.7751   22.7921  -75.4810 H         1 UNK         0.3047 
    118 H118      -81.7910   23.6177  -77.1822 H         1 UNK         0.0822 
    119 H119      -80.7201   21.0974  -75.8087 H         1 UNK         0.0807 
    120 H120      -81.3362   21.1918  -77.4505 H         1 UNK         0.0807 
    121 H121      -82.4143   21.4867  -76.0964 H         1 UNK         0.0807 
    122 H122      -81.9623   24.5029  -75.1996 H         1 UNK         0.2946 
    123 H123      -81.5152   25.2997  -73.1754 H         1 UNK         0.1144 
    124 H124      -82.9431   23.2796  -72.6302 H         1 UNK         0.0793 
    125 H125      -81.6440   22.6285  -71.6398 H         1 UNK         0.0793 
    126 H126      -82.4565   24.1204  -71.1696 H         1 UNK         0.0793 
    127 H127      -79.0333   24.2220  -72.3405 H         1 UNK         0.2896 
@<TRIPOS>BOND
     1    1    2 1    
     2    1   67 1    
     3    1   68 1    
     4    1   69 1    
     5    2    3 2    
     6    2    4 am   BACKBONE|DICT|INTERRES
     7    4    5 1    
     8    4   70 1    
     9    5    6 1    
    10    5   65 1    
    11    5   71 1    
    12    6    7 1    
    13    6   72 1    
    14    6   73 1    
    15    7    8 1    
    16    8    9 1    
    17    8   74 1    
    18    8   75 1    
    19    9   10 ar   
    20    9   14 ar   
    21   10   11 ar   
    22   10   76 1    
    23   11   12 ar   
    24   11   48 1    
    25   12   13 ar   
    26   12   77 1    
    27   13   14 ar   
    28   13   15 1    
    29   14   78 1    
    30   15   16 1    
    31   15   79 1    
    32   15   80 1    
    33   16   17 1    
    34   17   18 1    
    35   17   81 1    
    36   17   82 1    
    37   18   19 1    
    38   18   22 1    
    39   18   83 1    
    40   19   20 am   BACKBONE|DICT|INTERRES
    41   19   21 2    
    42   20   84 1    
    43   20   85 1    
    44   22   23 am   BACKBONE|DICT|INTERRES
    45   22   86 1    
    46   23   24 2    
    47   23   25 1    
    48   25   26 1    
    49   25   27 1    
    50   25   87 1    
    51   26   88 1    
    52   26   89 1    
    53   26   90 1    
    54   27   28 am   BACKBONE|DICT|INTERRES
    55   27   91 1    
    56   28   29 2    
    57   28   30 1    
    58   30   31 1    
    59   30   32 1    
    60   30   92 1    
    61   31   93 1    
    62   31   94 1    
    63   31   95 1    
    64   32   33 am   BACKBONE|DICT|INTERRES
    65   32   96 1    
    66   33   34 2    
    67   33   35 1    
    68   35   36 1    
    69   35   37 1    
    70   35   97 1    
    71   36   98 1    
    72   36   99 1    
    73   36  100 1    
    74   37   38 am   BACKBONE|DICT|INTERRES
    75   37  101 1    
    76   38   39 2    
    77   38   40 1    
    78   40   41 1    
    79   40   42 1    
    80   40  102 1    
    81   41  103 1    
    82   41  104 1    
    83   41  105 1    
    84   42   43 am   BACKBONE|DICT|INTERRES
    85   42  106 1    
    86   43   44 2    
    87   43   45 1    
    88   45   46 1    
    89   45   49 1    
    90   45  107 1    
    91   46   47 1    
    92   46  108 1    
    93   46  109 1    
    94   47   48 1    
    95   48  110 1    
    96   48  111 1    
    97   49   50 am   BACKBONE|DICT|INTERRES
    98   49  112 1    
    99   50   51 2    
   100   50   52 1    
   101   52   53 1    
   102   52   54 1    
   103   52  113 1    
   104   53  114 1    
   105   53  115 1    
   106   53  116 1    
   107   54   55 am   BACKBONE|DICT|INTERRES
   108   54  117 1    
   109   55   56 2    
   110   55   57 1    
   111   57   58 1    
   112   57   59 1    
   113   57  118 1    
   114   58  119 1    
   115   58  120 1    
   116   58  121 1    
   117   59   60 am   BACKBONE|DICT|INTERRES
   118   59  122 1    
   119   60   61 2    
   120   60   62 1    
   121   62   63 1    
   122   62   64 1    
   123   62  123 1    
   124   63  124 1    
   125   63  125 1    
   126   63  126 1    
   127   64   65 am   BACKBONE|DICT|INTERRES
   128   64  127 1    
   129   65   66 2    
@<TRIPOS>SUBSTRUCTURE
     1 UNK         1 GROUP             0       ****    0 ROOT    
