@<TRIPOS>MOLECULE
3R135
127   129    1
SMALL
USER_CHARGES


@<TRIPOS>ATOM
      1 CA        -82.1928   26.9069  -75.2647 C.3       0 UNK        -0.1998 
      2 C         -83.1523   27.0785  -74.0924 C.2       0 UNK         0.4909 
      3 O         -84.3647   27.0531  -74.2965 O.2       0 UNK        -0.5240 
      4 N         -82.6725   27.2730  -72.8571 N.am      1 UNK        -0.4739 
      5 CA        -81.2659   27.2558  -72.4345 C.3       1 UNK         0.0864 
      6 C6        -81.0813   28.0008  -71.0891 C.3       11 UNK        -0.0881 
      7 S7        -81.3939   29.7886  -71.2796 S.3       11 UNK        -0.2682 
      8 C8        -79.7711   30.5168  -70.8737 C.3       11 UNK         0.0289 
      9 C9        -78.6357   29.9985  -71.7500 C.ar      11 UNK        -0.0687 
     10 C10       -78.6899   30.1316  -73.1419 C.ar      11 UNK        -0.0823 
     11 C11       -77.6417   29.6622  -73.9388 C.ar      11 UNK        -0.0830 
     12 C12       -76.5143   29.1002  -73.3334 C.ar      11 UNK        -0.1021 
     13 C13       -76.4530   28.9477  -71.9471 C.ar      11 UNK        -0.0753 
     14 C14       -77.5198   29.3935  -71.1608 C.ar      11 UNK        -0.0933 
     15 C15       -75.2458   28.2680  -71.3150 C.3       11 UNK         0.0166 
     16 S16       -74.4044   29.2838  -70.0605 S.3       11 UNK        -0.2615 
     17 C17       -74.0158   30.8317  -70.9564 C.3       11 UNK        -0.0865 
     18 CA        -72.6989   30.8344  -71.7801 C.3       10 UNK         0.0862 
     19 C         -71.4391   30.4343  -70.9533 C.2       10 UNK         0.5551 
     20 N         -70.6778   29.4164  -71.3406 N.am      10 UNK        -0.7319 
     21 O         -71.1380   31.0756  -69.9494 O.2       10 UNK        -0.5018 
     22 N         -72.8533   30.1263  -73.0608 N.am      10 UNK        -0.4509 
     23 C         -72.1313   30.3925  -74.1571 C.2       10 UNK         0.4899 
     24 O         -71.3161   31.3144  -74.2237 O.2       10 UNK        -0.4839 
     25 CA        -72.3586   29.4880  -75.3865 C.3       9 UNK         0.0222 
     26 CB        -71.1654   29.5270  -76.3643 C.3       9 UNK        -0.1966 
     27 N         -72.7038   28.0935  -75.0780 N.am      9 UNK        -0.4218 
     28 C         -72.0102   27.2211  -74.3287 C.2       9 UNK         0.5020 
     29 O         -71.0260   27.5205  -73.6515 O.2       9 UNK        -0.5274 
     30 CA        -72.4926   25.7619  -74.3524 C.3       8 UNK         0.0270 
     31 CB        -73.6936   25.5571  -73.4139 C.3       8 UNK        -0.1976 
     32 N         -72.8538   25.3426  -75.7090 N.am      8 UNK        -0.4313 
     33 C         -72.0000   24.8217  -76.6021 C.2       8 UNK         0.5041 
     34 O         -70.8146   24.5901  -76.3608 O.2       8 UNK        -0.5577 
     35 CA        -72.5562   24.4893  -78.0005 C.3       7 UNK         0.0284 
     36 CB        -73.0015   23.0193  -78.0639 C.3       7 UNK        -0.1958 
     37 N         -73.6754   25.3515  -78.3880 N.am      7 UNK        -0.4454 
     38 C         -73.5410   26.6330  -78.7654 C.2       7 UNK         0.5089 
     39 O         -72.4523   27.1782  -78.9422 O.2       7 UNK        -0.5125 
     40 CA        -74.8285   27.4627  -78.9523 C.3       6 UNK         0.0408 
     41 CB        -75.1962   27.5560  -80.4411 C.3       6 UNK        -0.1791 
     42 N         -75.9774   26.9454  -78.2035 N.am      6 UNK        -0.4762 
     43 C         -76.0341   26.8164  -76.8708 C.2       6 UNK         0.5007 
     44 O         -75.1525   27.2216  -76.1125 O.2       6 UNK        -0.5032 
     45 CA        -77.2195   26.0321  -76.2803 C.3       5 UNK         0.0783 
     46 C46       -78.1598   26.8808  -75.3954 C.3       11 UNK        -0.0857 
     47 S47       -78.8205   28.4169  -76.1396 S.3       11 UNK        -0.2512 
     48 C48       -77.7340   29.7196  -75.4573 C.3       11 UNK         0.0225 
     49 N         -77.9695   25.2136  -77.2338 N.am      5 UNK        -0.4615 
     50 C         -77.4868   24.1345  -77.8601 C.2       4 UNK         0.5053 
     51 O         -76.2843   23.8808  -77.9588 O.2       4 UNK        -0.5105 
     52 CA        -78.5453   23.1438  -78.3800 C.3       4 UNK         0.0263 
     53 CB        -77.9422   22.0651  -79.2981 C.3       4 UNK        -0.1981 
     54 N         -79.2042   22.4935  -77.2413 N.am      4 UNK        -0.4224 
     55 C         -80.1156   23.0703  -76.4436 C.2       3 UNK         0.4895 
     56 O         -80.6286   24.1648  -76.6839 O.2       3 UNK        -0.5091 
     57 CA        -80.4910   22.3478  -75.1350 C.3       3 UNK         0.0250 
     58 CB        -79.9658   20.8969  -75.0352 C.3       3 UNK        -0.1996 
     59 N         -80.0824   23.1302  -73.9585 N.am      3 UNK        -0.4254 
     60 C         -78.8429   23.5292  -73.6321 C.2       2 UNK         0.5004 
     61 O         -77.8420   23.2690  -74.3013 O.2       2 UNK        -0.5226 
     62 CA        -78.7008   24.3745  -72.3466 C.3       2 UNK         0.0269 
     63 CB        -77.2288   24.6711  -71.9974 C.3       2 UNK        -0.1926 
     64 N         -79.4182   25.6512  -72.4213 N.am      2 UNK        -0.4687 
     65 C         -80.7440   25.8087  -72.3269 C.2       1 UNK         0.5165 
     66 O         -81.5282   24.8713  -72.1564 O.2       1 UNK        -0.5079 
     67 H67       -82.7385   26.6576  -76.1745 H         1 UNK         0.0900 
     68 H68       -81.6474   27.8313  -75.4477 H         1 UNK         0.0900 
     69 H69       -81.4818   26.1036  -75.0833 H         1 UNK         0.0900 
     70 H70       -83.3359   27.3779  -72.1033 H         1 UNK         0.2959 
     71 H71       -80.6664   27.7675  -73.1909 H         1 UNK         0.1079 
     72 H72       -80.0759   27.8551  -70.6897 H         1 UNK         0.0837 
     73 H73       -81.7607   27.6063  -70.3309 H         1 UNK         0.0837 
     74 H74       -79.8353   31.5997  -70.9871 H         1 UNK         0.0685 
     75 H75       -79.5623   30.3323  -69.8187 H         1 UNK         0.0685 
     76 H76       -79.5593   30.5780  -73.6055 H         1 UNK         0.1434 
     77 H77       -75.7047   28.7386  -73.9521 H         1 UNK         0.1329 
     78 H78       -77.4717   29.2769  -70.0866 H         1 UNK         0.1335 
     79 H79       -74.5153   27.9915  -72.0737 H         1 UNK         0.0680 
     80 H80       -75.5700   27.3359  -70.8503 H         1 UNK         0.0680 
     81 H81       -74.8568   31.1163  -71.5900 H         1 UNK         0.1032 
     82 H82       -73.9593   31.6200  -70.2037 H         1 UNK         0.1032 
     83 H83       -72.5289   31.8826  -72.0349 H         1 UNK         0.0461 
     84 H84       -70.9002   28.8799  -72.1724 H         1 UNK         0.3453 
     85 H85       -69.8641   29.1779  -70.7969 H         1 UNK         0.3453 
     86 H86       -73.4815   29.3393  -73.0680 H         1 UNK         0.2984 
     87 H87       -73.2243   29.9009  -75.9064 H         1 UNK         0.0554 
     88 H88       -71.3509   28.9106  -77.2430 H         1 UNK         0.0847 
     89 H89       -70.2488   29.1697  -75.8936 H         1 UNK         0.0847 
     90 H90       -70.9770   30.5409  -76.7196 H         1 UNK         0.0847 
     91 H91       -73.5490   27.7514  -75.5343 H         1 UNK         0.3141 
     92 H92       -71.6757   25.1349  -73.9884 H         1 UNK         0.0743 
     93 H93       -74.5508   26.1642  -73.7051 H         1 UNK         0.0784 
     94 H94       -74.0138   24.5149  -73.4048 H         1 UNK         0.0784 
     95 H95       -73.4334   25.8209  -72.3880 H         1 UNK         0.0784 
     96 H96       -73.7942   25.5550  -76.0129 H         1 UNK         0.3213 
     97 H97       -71.7465   24.6297  -78.7203 H         1 UNK         0.0855 
     98 H98       -72.1729   22.3504  -77.8274 H         1 UNK         0.0814 
     99 H99       -73.3581   22.7546  -79.0595 H         1 UNK         0.0814 
    100 H100      -73.8031   22.8086  -77.3547 H         1 UNK         0.0814 
    101 H101      -74.6084   24.9580  -78.2965 H         1 UNK         0.3105 
    102 H102      -74.6223   28.4702  -78.5850 H         1 UNK         0.0547 
    103 H103      -74.3689   27.9664  -81.0220 H         1 UNK         0.0837 
    104 H104      -75.4347   26.5778  -80.8604 H         1 UNK         0.0837 
    105 H105      -76.0545   28.2092  -80.5987 H         1 UNK         0.0837 
    106 H106      -76.7447   26.5698  -78.7424 H         1 UNK         0.3020 
    107 H107      -76.7479   25.3114  -75.6074 H         1 UNK         0.1245 
    108 H108      -77.6622   27.0909  -74.4536 H         1 UNK         0.0781 
    109 H109      -79.0206   26.2754  -75.1120 H         1 UNK         0.0781 
    110 H110      -78.1169   30.6944  -75.7624 H         1 UNK         0.0836 
    111 H111      -76.7433   29.6317  -75.9060 H         1 UNK         0.0836 
    112 H112      -78.9791   25.2997  -77.1864 H         1 UNK         0.3022 
    113 H113      -79.2851   23.7056  -78.9545 H         1 UNK         0.0747 
    114 H114      -77.4436   22.5188  -80.1557 H         1 UNK         0.0793 
    115 H115      -77.2030   21.4548  -78.7774 H         1 UNK         0.0793 
    116 H116      -78.7131   21.3993  -79.6866 H         1 UNK         0.0793 
    117 H117      -78.8037   21.6182  -76.9367 H         1 UNK         0.3047 
    118 H118      -81.5812   22.3061  -75.1161 H         1 UNK         0.0822 
    119 H119      -78.8765   20.8478  -75.0115 H         1 UNK         0.0807 
    120 H120      -80.3101   20.2930  -75.8759 H         1 UNK         0.0807 
    121 H121      -80.3322   20.4141  -74.1291 H         1 UNK         0.0807 
    122 H122      -80.8373   23.4640  -73.3659 H         1 UNK         0.2946 
    123 H123      -79.1228   23.7833  -71.5303 H         1 UNK         0.1144 
    124 H124      -76.6537   23.7486  -71.9059 H         1 UNK         0.0793 
    125 H125      -76.7466   25.2810  -72.7617 H         1 UNK         0.0793 
    126 H126      -77.1446   25.1971  -71.0463 H         1 UNK         0.0793 
    127 H127      -78.8427   26.4720  -72.5433 H         1 UNK         0.2896 
@<TRIPOS>BOND
     1    1    2 1    
     2    1   67 1    
     3    1   68 1    
     4    1   69 1    
     5    2    3 2    
     6    2    4 am   BACKBONE|DICT|INTERRES
     7    4    5 1    
     8    4   70 1    
     9    5    6 1    
    10    5   65 1    
    11    5   71 1    
    12    6    7 1    
    13    6   72 1    
    14    6   73 1    
    15    7    8 1    
    16    8    9 1    
    17    8   74 1    
    18    8   75 1    
    19    9   10 ar   
    20    9   14 ar   
    21   10   11 ar   
    22   10   76 1    
    23   11   12 ar   
    24   11   48 1    
    25   12   13 ar   
    26   12   77 1    
    27   13   14 ar   
    28   13   15 1    
    29   14   78 1    
    30   15   16 1    
    31   15   79 1    
    32   15   80 1    
    33   16   17 1    
    34   17   18 1    
    35   17   81 1    
    36   17   82 1    
    37   18   19 1    
    38   18   22 1    
    39   18   83 1    
    40   19   20 am   BACKBONE|DICT|INTERRES
    41   19   21 2    
    42   20   84 1    
    43   20   85 1    
    44   22   23 am   BACKBONE|DICT|INTERRES
    45   22   86 1    
    46   23   24 2    
    47   23   25 1    
    48   25   26 1    
    49   25   27 1    
    50   25   87 1    
    51   26   88 1    
    52   26   89 1    
    53   26   90 1    
    54   27   28 am   BACKBONE|DICT|INTERRES
    55   27   91 1    
    56   28   29 2    
    57   28   30 1    
    58   30   31 1    
    59   30   32 1    
    60   30   92 1    
    61   31   93 1    
    62   31   94 1    
    63   31   95 1    
    64   32   33 am   BACKBONE|DICT|INTERRES
    65   32   96 1    
    66   33   34 2    
    67   33   35 1    
    68   35   36 1    
    69   35   37 1    
    70   35   97 1    
    71   36   98 1    
    72   36   99 1    
    73   36  100 1    
    74   37   38 am   BACKBONE|DICT|INTERRES
    75   37  101 1    
    76   38   39 2    
    77   38   40 1    
    78   40   41 1    
    79   40   42 1    
    80   40  102 1    
    81   41  103 1    
    82   41  104 1    
    83   41  105 1    
    84   42   43 am   BACKBONE|DICT|INTERRES
    85   42  106 1    
    86   43   44 2    
    87   43   45 1    
    88   45   46 1    
    89   45   49 1    
    90   45  107 1    
    91   46   47 1    
    92   46  108 1    
    93   46  109 1    
    94   47   48 1    
    95   48  110 1    
    96   48  111 1    
    97   49   50 am   BACKBONE|DICT|INTERRES
    98   49  112 1    
    99   50   51 2    
   100   50   52 1    
   101   52   53 1    
   102   52   54 1    
   103   52  113 1    
   104   53  114 1    
   105   53  115 1    
   106   53  116 1    
   107   54   55 am   BACKBONE|DICT|INTERRES
   108   54  117 1    
   109   55   56 2    
   110   55   57 1    
   111   57   58 1    
   112   57   59 1    
   113   57  118 1    
   114   58  119 1    
   115   58  120 1    
   116   58  121 1    
   117   59   60 am   BACKBONE|DICT|INTERRES
   118   59  122 1    
   119   60   61 2    
   120   60   62 1    
   121   62   63 1    
   122   62   64 1    
   123   62  123 1    
   124   63  124 1    
   125   63  125 1    
   126   63  126 1    
   127   64   65 am   BACKBONE|DICT|INTERRES
   128   64  127 1    
   129   65   66 2    
@<TRIPOS>SUBSTRUCTURE
     1 UNK         1 GROUP             0       ****    0 ROOT    
