@<TRIPOS>MOLECULE
3R135
127   129    1
SMALL
USER_CHARGES


@<TRIPOS>ATOM
      1 CA        -78.5331   30.8284  -75.9736 C.3       0 UNK        -0.1998 
      2 C         -78.4516   29.4396  -75.3600 C.2       0 UNK         0.4909 
      3 O         -77.4044   28.8015  -75.4306 O.2       0 UNK        -0.5240 
      4 N         -79.5522   28.9609  -74.7629 N.am      1 UNK        -0.4739 
      5 CA        -79.6217   27.6699  -74.0641 C.3       1 UNK         0.0864 
      6 C6        -80.8479   27.6097  -73.1152 C.3       11 UNK        -0.0881 
      7 S7        -80.6188   26.4773  -71.6999 S.3       11 UNK        -0.2682 
      8 C8        -79.8769   27.5754  -70.4442 C.3       11 UNK         0.0289 
      9 C9        -78.4718   28.0069  -70.8395 C.ar      11 UNK        -0.0687 
     10 C10       -77.4334   27.0732  -70.8468 C.ar      11 UNK        -0.0823 
     11 C11       -76.1585   27.4340  -71.2895 C.ar      11 UNK        -0.0830 
     12 C12       -75.9222   28.7469  -71.7071 C.ar      11 UNK        -0.1021 
     13 C13       -76.9448   29.7067  -71.6812 C.ar      11 UNK        -0.0753 
     14 C14       -78.2163   29.3220  -71.2407 C.ar      11 UNK        -0.0933 
     15 C15       -76.7507   31.1623  -72.1220 C.3       11 UNK         0.0166 
     16 S16       -75.1487   31.5863  -72.8940 S.3       11 UNK        -0.2615 
     17 C17       -74.0413   31.6101  -71.4372 C.3       11 UNK        -0.0865 
     18 CA        -72.5348   31.4506  -71.7866 C.3       10 UNK         0.0862 
     19 C         -71.6874   31.3541  -70.4834 C.2       10 UNK         0.5551 
     20 N         -71.0535   30.2271  -70.1840 N.am      10 UNK        -0.7319 
     21 O         -71.6094   32.3221  -69.7310 O.2       10 UNK        -0.5018 
     22 N         -72.3060   30.3898  -72.7834 N.am      10 UNK        -0.4509 
     23 C         -71.1685   30.1766  -73.4584 C.2       10 UNK         0.4899 
     24 O         -70.1147   30.7784  -73.2522 O.2       10 UNK        -0.4839 
     25 CA        -71.2330   29.1328  -74.5876 C.3       9 UNK         0.0222 
     26 CB        -70.9818   27.7209  -74.0354 C.3       9 UNK        -0.1966 
     27 N         -72.5093   29.1563  -75.3088 N.am      9 UNK        -0.4218 
     28 C         -72.9605   30.1726  -76.0557 C.2       9 UNK         0.5020 
     29 O         -72.3067   31.1909  -76.2917 O.2       9 UNK        -0.5274 
     30 CA        -74.3767   30.0111  -76.6421 C.3       8 UNK         0.0270 
     31 CB        -74.9248   31.3250  -77.2306 C.3       8 UNK        -0.1976 
     32 N         -74.4543   28.9632  -77.6652 N.am      8 UNK        -0.4313 
     33 C         -74.3943   27.6475  -77.4283 C.2       8 UNK         0.5041 
     34 O         -74.2074   27.1599  -76.3111 O.2       8 UNK        -0.5577 
     35 CA        -74.5445   26.7188  -78.6382 C.3       7 UNK         0.0284 
     36 CB        -73.2331   26.6280  -79.4386 C.3       7 UNK        -0.1958 
     37 N         -74.9119   25.3977  -78.1419 N.am      7 UNK        -0.4454 
     38 C         -75.6336   24.4764  -78.7835 C.2       7 UNK         0.5089 
     39 O         -76.0273   24.6112  -79.9423 O.2       7 UNK        -0.5125 
     40 CA        -76.0172   23.1996  -78.0085 C.3       6 UNK         0.0408 
     41 CB        -74.9971   22.0705  -78.2522 C.3       6 UNK        -0.1791 
     42 N         -76.2798   23.4076  -76.5739 N.am      6 UNK        -0.4762 
     43 C         -75.4150   23.6987  -75.5874 C.2       6 UNK         0.5007 
     44 O         -74.1997   23.7888  -75.7568 O.2       6 UNK        -0.5032 
     45 CA        -76.0051   23.9675  -74.1865 C.3       5 UNK         0.0783 
     46 C46       -76.0047   25.4841  -73.8554 C.3       11 UNK        -0.0857 
     47 S47       -74.4756   26.0489  -73.0340 S.3       11 UNK        -0.2512 
     48 C48       -75.0439   26.3951  -71.3356 C.3       11 UNK         0.0225 
     49 N         -77.3569   23.4224  -74.0377 N.am      5 UNK        -0.4615 
     50 C         -77.6578   22.1517  -73.7514 C.2       4 UNK         0.5053 
     51 O         -76.8151   21.2626  -73.6330 O.2       4 UNK        -0.5105 
     52 CA        -79.1427   21.8164  -73.5483 C.3       4 UNK         0.0263 
     53 CB        -79.5693   22.1385  -72.1059 C.3       4 UNK        -0.1981 
     54 N         -80.0129   22.5427  -74.4800 N.am      4 UNK        -0.4224 
     55 C         -80.9469   21.9704  -75.2543 C.2       3 UNK         0.4895 
     56 O         -81.1677   20.7586  -75.2785 O.2       3 UNK        -0.5091 
     57 CA        -81.8025   22.8902  -76.1502 C.3       3 UNK         0.0250 
     58 CB        -83.1530   23.1826  -75.4758 C.3       3 UNK        -0.1996 
     59 N         -81.1607   24.1600  -76.4974 N.am      3 UNK        -0.4254 
     60 C         -80.0628   24.2835  -77.2547 C.2       2 UNK         0.5004 
     61 O         -79.5060   23.3358  -77.8069 O.2       2 UNK        -0.5226 
     62 CA        -79.4521   25.6908  -77.3927 C.3       2 UNK         0.0269 
     63 CB        -79.8477   26.3190  -78.7380 C.3       2 UNK        -0.1926 
     64 N         -79.7563   26.6394  -76.3107 N.am      2 UNK        -0.4687 
     65 C         -79.5249   26.4468  -75.0023 C.2       1 UNK         0.5165 
     66 O         -79.2168   25.3528  -74.5298 O.2       1 UNK        -0.5079 
     67 H67       -79.4840   31.3151  -75.7578 H         1 UNK         0.0900 
     68 H68       -77.7342   31.4565  -75.5798 H         1 UNK         0.0900 
     69 H69       -78.4184   30.7672  -77.0553 H         1 UNK         0.0900 
     70 H70       -80.3933   29.5206  -74.7475 H         1 UNK         0.2959 
     71 H71       -78.7172   27.6155  -73.4572 H         1 UNK         0.1079 
     72 H72       -81.7489   27.3192  -73.6587 H         1 UNK         0.0837 
     73 H73       -81.0601   28.5996  -72.7081 H         1 UNK         0.0837 
     74 H74       -79.8340   27.0444  -69.4922 H         1 UNK         0.0685 
     75 H75       -80.5243   28.4391  -70.2847 H         1 UNK         0.0685 
     76 H76       -77.6326   26.0547  -70.5422 H         1 UNK         0.1434 
     77 H77       -74.9360   28.9976  -72.0649 H         1 UNK         0.1329 
     78 H78       -79.0196   30.0462  -71.2351 H         1 UNK         0.1335 
     79 H79       -77.5322   31.4080  -72.8424 H         1 UNK         0.0680 
     80 H80       -76.9094   31.8167  -71.2637 H         1 UNK         0.0680 
     81 H81       -74.2023   32.5526  -70.9103 H         1 UNK         0.1032 
     82 H82       -74.3507   30.8303  -70.7397 H         1 UNK         0.1032 
     83 H83       -72.2227   32.3780  -72.2705 H         1 UNK         0.0461 
     84 H84       -71.1050   29.4356  -70.8044 H         1 UNK         0.3453 
     85 H85       -70.5062   30.1752  -69.3394 H         1 UNK         0.3453 
     86 H86       -73.1221   29.8627  -73.0535 H         1 UNK         0.2984 
     87 H87       -70.4426   29.3654  -75.3041 H         1 UNK         0.0554 
     88 H88       -70.0140   27.6640  -73.5353 H         1 UNK         0.0847 
     89 H89       -70.9789   26.9771  -74.8326 H         1 UNK         0.0847 
     90 H90       -71.7416   27.4285  -73.3100 H         1 UNK         0.0847 
     91 H91       -73.0904   28.3197  -75.2754 H         1 UNK         0.3141 
     92 H92       -75.0264   29.7288  -75.8116 H         1 UNK         0.0743 
     93 H93       -74.3247   31.6751  -78.0713 H         1 UNK         0.0784 
     94 H94       -75.9511   31.2067  -77.5769 H         1 UNK         0.0784 
     95 H95       -74.9276   32.1148  -76.4780 H         1 UNK         0.0784 
     96 H96       -74.5648   29.2789  -78.6180 H         1 UNK         0.3213 
     97 H97       -75.3448   27.1037  -79.2742 H         1 UNK         0.0855 
     98 H98       -72.4137   26.2536  -78.8235 H         1 UNK         0.0814 
     99 H99       -72.9353   27.6049  -79.8211 H         1 UNK         0.0814 
    100 H100      -73.3372   25.9637  -80.2967 H         1 UNK         0.0814 
    101 H101      -74.6296   25.2222  -77.1803 H         1 UNK         0.3105 
    102 H102      -76.9660   22.8628  -78.4275 H         1 UNK         0.0547 
    103 H103      -75.2865   21.1552  -77.7363 H         1 UNK         0.0837 
    104 H104      -73.9949   22.3423  -77.9204 H         1 UNK         0.0837 
    105 H105      -74.9287   21.8359  -79.3152 H         1 UNK         0.0837 
    106 H106      -77.2557   23.3542  -76.3160 H         1 UNK         0.3020 
    107 H107      -75.3628   23.4512  -73.4691 H         1 UNK         0.1245 
    108 H108      -76.8436   25.7197  -73.2023 H         1 UNK         0.0781 
    109 H109      -76.1724   26.0964  -74.7444 H         1 UNK         0.0781 
    110 H110      -74.1983   26.7536  -70.7472 H         1 UNK         0.0836 
    111 H111      -75.3629   25.4593  -70.8740 H         1 UNK         0.0836 
    112 H112      -78.1071   24.1073  -74.1195 H         1 UNK         0.3022 
    113 H113      -79.2418   20.7392  -73.6980 H         1 UNK         0.0747 
    114 H114      -80.5952   21.8213  -71.9183 H         1 UNK         0.0793 
    115 H115      -78.9335   21.6239  -71.3841 H         1 UNK         0.0793 
    116 H116      -79.5069   23.2075  -71.8954 H         1 UNK         0.0793 
    117 H117      -79.8935   23.5504  -74.5285 H         1 UNK         0.3047 
    118 H118      -81.9933   22.3495  -77.0797 H         1 UNK         0.0822 
    119 H119      -83.8084   23.7575  -76.1303 H         1 UNK         0.0807 
    120 H120      -83.0278   23.7418  -74.5476 H         1 UNK         0.0807 
    121 H121      -83.6756   22.2569  -75.2302 H         1 UNK         0.0807 
    122 H122      -81.5435   24.9958  -76.0801 H         1 UNK         0.2946 
    123 H123      -78.3683   25.5566  -77.3923 H         1 UNK         0.1144 
    124 H124      -79.3166   27.2553  -78.9111 H         1 UNK         0.0793 
    125 H125      -80.9179   26.5232  -78.7883 H         1 UNK         0.0793 
    126 H126      -79.6020   25.6541  -79.5676 H         1 UNK         0.0793 
    127 H127      -80.0151   27.5727  -76.5964 H         1 UNK         0.2896 
@<TRIPOS>BOND
     1    1    2 1    
     2    1   67 1    
     3    1   68 1    
     4    1   69 1    
     5    2    3 2    
     6    2    4 am   BACKBONE|DICT|INTERRES
     7    4    5 1    
     8    4   70 1    
     9    5    6 1    
    10    5   65 1    
    11    5   71 1    
    12    6    7 1    
    13    6   72 1    
    14    6   73 1    
    15    7    8 1    
    16    8    9 1    
    17    8   74 1    
    18    8   75 1    
    19    9   10 ar   
    20    9   14 ar   
    21   10   11 ar   
    22   10   76 1    
    23   11   12 ar   
    24   11   48 1    
    25   12   13 ar   
    26   12   77 1    
    27   13   14 ar   
    28   13   15 1    
    29   14   78 1    
    30   15   16 1    
    31   15   79 1    
    32   15   80 1    
    33   16   17 1    
    34   17   18 1    
    35   17   81 1    
    36   17   82 1    
    37   18   19 1    
    38   18   22 1    
    39   18   83 1    
    40   19   20 am   BACKBONE|DICT|INTERRES
    41   19   21 2    
    42   20   84 1    
    43   20   85 1    
    44   22   23 am   BACKBONE|DICT|INTERRES
    45   22   86 1    
    46   23   24 2    
    47   23   25 1    
    48   25   26 1    
    49   25   27 1    
    50   25   87 1    
    51   26   88 1    
    52   26   89 1    
    53   26   90 1    
    54   27   28 am   BACKBONE|DICT|INTERRES
    55   27   91 1    
    56   28   29 2    
    57   28   30 1    
    58   30   31 1    
    59   30   32 1    
    60   30   92 1    
    61   31   93 1    
    62   31   94 1    
    63   31   95 1    
    64   32   33 am   BACKBONE|DICT|INTERRES
    65   32   96 1    
    66   33   34 2    
    67   33   35 1    
    68   35   36 1    
    69   35   37 1    
    70   35   97 1    
    71   36   98 1    
    72   36   99 1    
    73   36  100 1    
    74   37   38 am   BACKBONE|DICT|INTERRES
    75   37  101 1    
    76   38   39 2    
    77   38   40 1    
    78   40   41 1    
    79   40   42 1    
    80   40  102 1    
    81   41  103 1    
    82   41  104 1    
    83   41  105 1    
    84   42   43 am   BACKBONE|DICT|INTERRES
    85   42  106 1    
    86   43   44 2    
    87   43   45 1    
    88   45   46 1    
    89   45   49 1    
    90   45  107 1    
    91   46   47 1    
    92   46  108 1    
    93   46  109 1    
    94   47   48 1    
    95   48  110 1    
    96   48  111 1    
    97   49   50 am   BACKBONE|DICT|INTERRES
    98   49  112 1    
    99   50   51 2    
   100   50   52 1    
   101   52   53 1    
   102   52   54 1    
   103   52  113 1    
   104   53  114 1    
   105   53  115 1    
   106   53  116 1    
   107   54   55 am   BACKBONE|DICT|INTERRES
   108   54  117 1    
   109   55   56 2    
   110   55   57 1    
   111   57   58 1    
   112   57   59 1    
   113   57  118 1    
   114   58  119 1    
   115   58  120 1    
   116   58  121 1    
   117   59   60 am   BACKBONE|DICT|INTERRES
   118   59  122 1    
   119   60   61 2    
   120   60   62 1    
   121   62   63 1    
   122   62   64 1    
   123   62  123 1    
   124   63  124 1    
   125   63  125 1    
   126   63  126 1    
   127   64   65 am   BACKBONE|DICT|INTERRES
   128   64  127 1    
   129   65   66 2    
@<TRIPOS>SUBSTRUCTURE
     1 UNK         1 GROUP             0       ****    0 ROOT    
