@<TRIPOS>MOLECULE
3R135
127   129    1
SMALL
USER_CHARGES


@<TRIPOS>ATOM
      1 CA        -81.0109   31.2536  -74.7205 C.3       0 UNK        -0.1998 
      2 C         -80.6925   29.8023  -74.3943 C.2       0 UNK         0.4909 
      3 O         -79.7491   29.2447  -74.9543 O.2       0 UNK        -0.5240 
      4 N         -81.4653   29.1960  -73.4833 N.am      1 UNK        -0.4739 
      5 CA        -81.3247   27.7959  -73.0684 C.3       1 UNK         0.0864 
      6 C6        -82.0401   27.5136  -71.7187 C.3       11 UNK        -0.0881 
      7 S7        -81.4239   28.3014  -70.1789 S.3       11 UNK        -0.2682 
      8 C8        -80.1093   29.5058  -70.5949 C.3       11 UNK         0.0289 
      9 C9        -78.7840   28.9145  -71.0744 C.ar      11 UNK        -0.0687 
     10 C10       -78.3260   27.6623  -70.6446 C.ar      11 UNK        -0.0823 
     11 C11       -77.0999   27.1591  -71.0937 C.ar      11 UNK        -0.0830 
     12 C12       -76.3181   27.9279  -71.9596 C.ar      11 UNK        -0.1021 
     13 C13       -76.7447   29.1913  -72.3717 C.ar      11 UNK        -0.0753 
     14 C14       -77.9797   29.6745  -71.9305 C.ar      11 UNK        -0.0933 
     15 C15       -75.8581   30.0435  -73.2680 C.3       11 UNK         0.0166 
     16 S16       -74.4365   30.6896  -72.3309 S.3       11 UNK        -0.2615 
     17 C17       -73.9233   32.1329  -73.3288 C.3       11 UNK        -0.0865 
     18 CA        -72.5147   32.0078  -73.9670 C.3       10 UNK         0.0862 
     19 C         -71.3657   31.9747  -72.9130 C.2       10 UNK         0.5551 
     20 N         -70.4852   30.9796  -72.9062 N.am      10 UNK        -0.7319 
     21 O         -71.2616   32.8852  -72.0943 O.2       10 UNK        -0.5018 
     22 N         -72.4682   30.9330  -74.9680 N.am      10 UNK        -0.4509 
     23 C         -71.6302   30.9039  -76.0117 C.2       10 UNK         0.4899 
     24 O         -70.8627   31.8247  -76.2978 O.2       10 UNK        -0.4839 
     25 CA        -71.6582   29.6294  -76.8768 C.3       9 UNK         0.0222 
     26 CB        -70.3961   29.4728  -77.7514 C.3       9 UNK        -0.1966 
     27 N         -71.9061   28.4004  -76.1119 N.am      9 UNK        -0.4218 
     28 C         -71.1681   27.9013  -75.1049 C.2       9 UNK         0.5020 
     29 O         -70.2005   28.4866  -74.6159 O.2       9 UNK        -0.5274 
     30 CA        -71.5761   26.5328  -74.5180 C.3       8 UNK         0.0270 
     31 CB        -72.2042   26.7259  -73.1275 C.3       8 UNK        -0.1976 
     32 N         -72.5042   25.7719  -75.3617 N.am      8 UNK        -0.4313 
     33 C         -72.2155   25.2708  -76.5745 C.2       8 UNK         0.5041 
     34 O         -71.0782   25.2544  -77.0466 O.2       8 UNK        -0.5577 
     35 CA        -73.3855   24.7441  -77.4352 C.3       7 UNK         0.0284 
     36 CB        -73.4116   23.2075  -77.4256 C.3       7 UNK        -0.1958 
     37 N         -74.7053   25.2428  -77.0353 N.am      7 UNK        -0.4454 
     38 C         -75.0701   26.5288  -76.9304 C.2       7 UNK         0.5089 
     39 O         -74.3640   27.4703  -77.2910 O.2       7 UNK        -0.5125 
     40 CA        -76.4058   26.8224  -76.2262 C.3       6 UNK         0.0408 
     41 CB        -77.4920   27.1626  -77.2566 C.3       6 UNK        -0.1791 
     42 N         -76.8878   25.7415  -75.3602 N.am      6 UNK        -0.4762 
     43 C         -76.2469   25.1901  -74.3173 C.2       6 UNK         0.5007 
     44 O         -75.1103   25.5064  -73.9653 O.2       6 UNK        -0.5032 
     45 CA        -76.9895   24.0493  -73.5978 C.3       5 UNK         0.0783 
     46 C46       -78.1324   24.5906  -72.6936 C.3       11 UNK        -0.0857 
     47 S47       -77.7773   24.4426  -70.9137 S.3       11 UNK        -0.2512 
     48 C48       -76.5933   25.7996  -70.6280 C.3       11 UNK         0.0225 
     49 N         -77.4963   23.1012  -74.5912 N.am      5 UNK        -0.4615 
     50 C         -76.7861   22.1144  -75.1507 C.2       4 UNK         0.5053 
     51 O         -75.6288   21.8431  -74.8337 O.2       4 UNK        -0.5105 
     52 CA        -77.4793   21.2844  -76.2483 C.3       4 UNK         0.0263 
     53 CB        -77.9964   19.9583  -75.6678 C.3       4 UNK        -0.1981 
     54 N         -78.5903   21.9891  -76.8964 N.am      4 UNK        -0.4224 
     55 C         -78.4459   23.0086  -77.7550 C.2       3 UNK         0.4895 
     56 O         -77.3551   23.4333  -78.1369 O.2       3 UNK        -0.5091 
     57 CA        -79.7396   23.7023  -78.2267 C.3       3 UNK         0.0250 
     58 CB        -80.3283   22.9723  -79.4445 C.3       3 UNK        -0.1996 
     59 N         -80.7720   23.8378  -77.1863 N.am      3 UNK        -0.4254 
     60 C         -80.5911   24.4623  -76.0142 C.2       2 UNK         0.5004 
     61 O         -79.5093   24.9320  -75.6604 O.2       2 UNK        -0.5226 
     62 CA        -81.7809   24.5199  -75.0452 C.3       2 UNK         0.0269 
     63 CB        -81.9621   23.1646  -74.3407 C.3       2 UNK        -0.1926 
     64 N         -81.5371   25.5484  -74.0293 N.am      2 UNK        -0.4687 
     65 C         -81.8538   26.8419  -74.1681 C.2       1 UNK         0.5165 
     66 O         -82.5524   27.2703  -75.0920 O.2       1 UNK        -0.5079 
     67 H67       -80.1463   31.8827  -74.5102 H         1 UNK         0.0900 
     68 H68       -81.2574   31.3542  -75.7771 H         1 UNK         0.0900 
     69 H69       -81.8525   31.6279  -74.1381 H         1 UNK         0.0900 
     70 H70       -82.2470   29.6935  -73.0825 H         1 UNK         0.2959 
     71 H71       -80.2610   27.5781  -72.9549 H         1 UNK         0.1079 
     72 H72       -83.0978   27.7690  -71.8081 H         1 UNK         0.0837 
     73 H73       -82.0264   26.4428  -71.5071 H         1 UNK         0.0837 
     74 H74       -79.8954   30.0736  -69.6888 H         1 UNK         0.0685 
     75 H75       -80.4952   30.2358  -71.3052 H         1 UNK         0.0685 
     76 H76       -78.9201   27.0721  -69.9610 H         1 UNK         0.1434 
     77 H77       -75.3608   27.5567  -72.2979 H         1 UNK         0.1329 
     78 H78       -78.3117   30.6537  -72.2471 H         1 UNK         0.1335 
     79 H79       -75.4985   29.4522  -74.1108 H         1 UNK         0.0680 
     80 H80       -76.4352   30.8689  -73.6876 H         1 UNK         0.0680 
     81 H81       -73.9639   33.0148  -72.6867 H         1 UNK         0.1032 
     82 H82       -74.6582   32.3207  -74.1126 H         1 UNK         0.1032 
     83 H83       -72.3568   32.9431  -74.5078 H         1 UNK         0.0461 
     84 H84       -69.7478   30.9838  -72.2201 H         1 UNK         0.3453 
     85 H85       -70.5344   30.2273  -73.5837 H         1 UNK         0.3453 
     86 H86       -73.0447   30.1265  -74.7819 H         1 UNK         0.2984 
     87 H87       -72.5107   29.7411  -77.5483 H         1 UNK         0.0554 
     88 H88       -70.2783   30.3205  -78.4275 H         1 UNK         0.0847 
     89 H89       -70.4497   28.5747  -78.3670 H         1 UNK         0.0847 
     90 H90       -69.4910   29.4106  -77.1463 H         1 UNK         0.0847 
     91 H91       -72.7157   27.8697  -76.4254 H         1 UNK         0.3141 
     92 H92       -70.6648   25.9419  -74.4063 H         1 UNK         0.0743 
     93 H93       -71.5118   27.2284  -72.4506 H         1 UNK         0.0784 
     94 H94       -73.1083   27.3338  -73.1768 H         1 UNK         0.0784 
     95 H95       -72.4668   25.7708  -72.6720 H         1 UNK         0.0784 
     96 H96       -73.4591   25.6972  -75.0189 H         1 UNK         0.3213 
     97 H97       -73.2094   25.0810  -78.4587 H         1 UNK         0.0855 
     98 H98       -73.5817   22.8150  -76.4223 H         1 UNK         0.0814 
     99 H99       -72.4639   22.7987  -77.7789 H         1 UNK         0.0814 
    100 H100      -74.1951   22.8177  -78.0763 H         1 UNK         0.0814 
    101 H101      -75.3805   24.5503  -76.7422 H         1 UNK         0.3105 
    102 H102      -76.2530   27.6959  -75.5907 H         1 UNK         0.0547 
    103 H103      -78.4267   27.4425  -76.7694 H         1 UNK         0.0837 
    104 H104      -77.6962   26.3191  -77.9164 H         1 UNK         0.0837 
    105 H105      -77.1889   28.0030  -77.8823 H         1 UNK         0.0837 
    106 H106      -77.8387   25.4209  -75.5477 H         1 UNK         0.3020 
    107 H107      -76.2546   23.5284  -72.9791 H         1 UNK         0.1245 
    108 H108      -79.0451   24.0159  -72.8550 H         1 UNK         0.0781 
    109 H109      -78.4125   25.6191  -72.9307 H         1 UNK         0.0781 
    110 H110      -75.6522   25.5477  -71.1199 H         1 UNK         0.0836 
    111 H111      -76.3730   25.8539  -69.5611 H         1 UNK         0.0836 
    112 H112      -78.4101   23.3132  -74.9697 H         1 UNK         0.3022 
    113 H113      -76.7284   21.0561  -77.0079 H         1 UNK         0.0747 
    114 H114      -78.4251   19.3249  -76.4448 H         1 UNK         0.0793 
    115 H115      -77.1865   19.3938  -75.2032 H         1 UNK         0.0793 
    116 H116      -78.7595   20.1201  -74.9053 H         1 UNK         0.0793 
    117 H117      -79.5249   21.7015  -76.6450 H         1 UNK         0.3047 
    118 H118      -79.4656   24.7117  -78.5397 H         1 UNK         0.0822 
    119 H119      -81.1759   23.5160  -79.8622 H         1 UNK         0.0807 
    120 H120      -80.6657   21.9666  -79.1906 H         1 UNK         0.0807 
    121 H121      -79.5860   22.8762  -80.2384 H         1 UNK         0.0807 
    122 H122      -81.6830   23.4580  -77.4021 H         1 UNK         0.2946 
    123 H123      -82.6859   24.7569  -75.6098 H         1 UNK         0.1144 
    124 H124      -81.0654   22.8622  -73.7984 H         1 UNK         0.0793 
    125 H125      -82.1910   22.3749  -75.0574 H         1 UNK         0.0793 
    126 H126      -82.7867   23.1979  -73.6283 H         1 UNK         0.0793 
    127 H127      -80.9486   25.2744  -73.2571 H         1 UNK         0.2896 
@<TRIPOS>BOND
     1    1    2 1    
     2    1   67 1    
     3    1   68 1    
     4    1   69 1    
     5    2    3 2    
     6    2    4 am   BACKBONE|DICT|INTERRES
     7    4    5 1    
     8    4   70 1    
     9    5    6 1    
    10    5   65 1    
    11    5   71 1    
    12    6    7 1    
    13    6   72 1    
    14    6   73 1    
    15    7    8 1    
    16    8    9 1    
    17    8   74 1    
    18    8   75 1    
    19    9   10 ar   
    20    9   14 ar   
    21   10   11 ar   
    22   10   76 1    
    23   11   12 ar   
    24   11   48 1    
    25   12   13 ar   
    26   12   77 1    
    27   13   14 ar   
    28   13   15 1    
    29   14   78 1    
    30   15   16 1    
    31   15   79 1    
    32   15   80 1    
    33   16   17 1    
    34   17   18 1    
    35   17   81 1    
    36   17   82 1    
    37   18   19 1    
    38   18   22 1    
    39   18   83 1    
    40   19   20 am   BACKBONE|DICT|INTERRES
    41   19   21 2    
    42   20   84 1    
    43   20   85 1    
    44   22   23 am   BACKBONE|DICT|INTERRES
    45   22   86 1    
    46   23   24 2    
    47   23   25 1    
    48   25   26 1    
    49   25   27 1    
    50   25   87 1    
    51   26   88 1    
    52   26   89 1    
    53   26   90 1    
    54   27   28 am   BACKBONE|DICT|INTERRES
    55   27   91 1    
    56   28   29 2    
    57   28   30 1    
    58   30   31 1    
    59   30   32 1    
    60   30   92 1    
    61   31   93 1    
    62   31   94 1    
    63   31   95 1    
    64   32   33 am   BACKBONE|DICT|INTERRES
    65   32   96 1    
    66   33   34 2    
    67   33   35 1    
    68   35   36 1    
    69   35   37 1    
    70   35   97 1    
    71   36   98 1    
    72   36   99 1    
    73   36  100 1    
    74   37   38 am   BACKBONE|DICT|INTERRES
    75   37  101 1    
    76   38   39 2    
    77   38   40 1    
    78   40   41 1    
    79   40   42 1    
    80   40  102 1    
    81   41  103 1    
    82   41  104 1    
    83   41  105 1    
    84   42   43 am   BACKBONE|DICT|INTERRES
    85   42  106 1    
    86   43   44 2    
    87   43   45 1    
    88   45   46 1    
    89   45   49 1    
    90   45  107 1    
    91   46   47 1    
    92   46  108 1    
    93   46  109 1    
    94   47   48 1    
    95   48  110 1    
    96   48  111 1    
    97   49   50 am   BACKBONE|DICT|INTERRES
    98   49  112 1    
    99   50   51 2    
   100   50   52 1    
   101   52   53 1    
   102   52   54 1    
   103   52  113 1    
   104   53  114 1    
   105   53  115 1    
   106   53  116 1    
   107   54   55 am   BACKBONE|DICT|INTERRES
   108   54  117 1    
   109   55   56 2    
   110   55   57 1    
   111   57   58 1    
   112   57   59 1    
   113   57  118 1    
   114   58  119 1    
   115   58  120 1    
   116   58  121 1    
   117   59   60 am   BACKBONE|DICT|INTERRES
   118   59  122 1    
   119   60   61 2    
   120   60   62 1    
   121   62   63 1    
   122   62   64 1    
   123   62  123 1    
   124   63  124 1    
   125   63  125 1    
   126   63  126 1    
   127   64   65 am   BACKBONE|DICT|INTERRES
   128   64  127 1    
   129   65   66 2    
@<TRIPOS>SUBSTRUCTURE
     1 UNK         1 GROUP             0       ****    0 ROOT    
