@<TRIPOS>MOLECULE
3R135
127   129    1
SMALL
USER_CHARGES


@<TRIPOS>ATOM
      1 CA        -84.5258   29.9896  -72.4496 C.3       0 UNK        -0.1998 
      2 C         -83.8793   29.9479  -73.8259 C.2       0 UNK         0.4909 
      3 O         -84.5821   30.0061  -74.8352 O.2       0 UNK        -0.5240 
      4 N         -82.5444   29.8486  -73.8746 N.am      1 UNK        -0.4739 
      5 CA        -81.7490   29.7651  -75.1072 C.3       1 UNK         0.0864 
      6 C6        -80.2588   30.1102  -74.8548 C.3       11 UNK        -0.0881 
      7 S7        -79.4818   29.1405  -73.5124 S.3       11 UNK        -0.2682 
      8 C8        -77.9313   28.6174  -74.3039 C.3       11 UNK         0.0289 
      9 C9        -77.0083   27.9204  -73.3135 C.ar      11 UNK        -0.0687 
     10 C10       -77.3444   26.6694  -72.7853 C.ar      11 UNK        -0.0823 
     11 C11       -76.5016   26.0274  -71.8704 C.ar      11 UNK        -0.0830 
     12 C12       -75.3047   26.6497  -71.4932 C.ar      11 UNK        -0.1021 
     13 C13       -74.9509   27.8924  -72.0259 C.ar      11 UNK        -0.0753 
     14 C14       -75.8112   28.5272  -72.9251 C.ar      11 UNK        -0.0933 
     15 C15       -73.6408   28.5581  -71.6386 C.3       11 UNK         0.0166 
     16 S16       -72.4306   28.4077  -72.9862 S.3       11 UNK        -0.2615 
     17 C17       -71.0881   29.5042  -72.4102 C.3       11 UNK        -0.0865 
     18 CA        -71.4312   31.0207  -72.4403 C.3       10 UNK         0.0862 
     19 C         -70.1886   31.8774  -72.0589 C.2       10 UNK         0.5551 
     20 N         -69.6884   32.7484  -72.9267 N.am      10 UNK        -0.7319 
     21 O         -69.6728   31.7496  -70.9512 O.2       10 UNK        -0.5018 
     22 N         -72.1041   31.4157  -73.6890 N.am      10 UNK        -0.4509 
     23 C         -72.8704   32.4998  -73.8484 C.2       10 UNK         0.4899 
     24 O         -73.0542   33.3419  -72.9695 O.2       10 UNK        -0.4839 
     25 CA        -73.5867   32.6675  -75.2018 C.3       9 UNK         0.0222 
     26 CB        -72.6611   33.3217  -76.2468 C.3       9 UNK        -0.1966 
     27 N         -74.2180   31.4390  -75.7136 N.am      9 UNK        -0.4218 
     28 C         -73.6324   30.3219  -76.1675 C.2       9 UNK         0.5020 
     29 O         -72.4105   30.1619  -76.2495 O.2       9 UNK        -0.5274 
     30 CA        -74.5737   29.1868  -76.5864 C.3       8 UNK         0.0270 
     31 CB        -75.2815   29.4936  -77.9191 C.3       8 UNK        -0.1976 
     32 N         -73.7897   27.9641  -76.7088 N.am      8 UNK        -0.4313 
     33 C         -74.2478   26.7246  -76.5253 C.2       8 UNK         0.5041 
     34 O         -75.4233   26.4505  -76.2641 O.2       8 UNK        -0.5577 
     35 CA        -73.2156   25.5981  -76.6512 C.3       7 UNK         0.0284 
     36 CB        -72.2806   25.5572  -75.4278 C.3       7 UNK        -0.1958 
     37 N         -73.9440   24.3419  -76.7534 N.am      7 UNK        -0.4454 
     38 C         -73.5071   23.1976  -77.2879 C.2       7 UNK         0.5089 
     39 O         -72.3993   23.0599  -77.8101 O.2       7 UNK        -0.5125 
     40 CA        -74.4853   22.0096  -77.1917 C.3       6 UNK         0.0408 
     41 CB        -73.8433   20.6521  -77.5492 C.3       6 UNK        -0.1791 
     42 N         -75.1504   21.9712  -75.8819 N.am      6 UNK        -0.4762 
     43 C         -74.5682   21.7907  -74.6820 C.2       6 UNK         0.5007 
     44 O         -73.3893   21.4640  -74.5405 O.2       6 UNK        -0.5032 
     45 CA        -75.4130   22.0622  -73.4156 C.3       5 UNK         0.0783 
     46 C46       -74.8469   23.2906  -72.6590 C.3       11 UNK        -0.0857 
     47 S47       -75.5707   23.4935  -70.9962 S.3       11 UNK        -0.2512 
     48 C48       -76.9281   24.6868  -71.2730 C.3       11 UNK         0.0225 
     49 N         -76.8324   22.2538  -73.7176 N.am      5 UNK        -0.4615 
     50 C         -77.7115   21.2942  -74.0243 C.2       4 UNK         0.5053 
     51 O         -77.4477   20.0923  -74.0057 O.2       4 UNK        -0.5105 
     52 CA        -79.1188   21.7609  -74.4473 C.3       4 UNK         0.0263 
     53 CB        -80.1199   21.5507  -73.2997 C.3       4 UNK        -0.1981 
     54 N         -79.1891   23.1620  -74.8887 N.am      4 UNK        -0.4224 
     55 C         -78.5478   23.6848  -75.9463 C.2       3 UNK         0.4895 
     56 O         -77.7770   23.0374  -76.6564 O.2       3 UNK        -0.5091 
     57 CA        -78.7635   25.1873  -76.2177 C.3       3 UNK         0.0250 
     58 CB        -78.4817   25.5755  -77.6846 C.3       3 UNK        -0.1996 
     59 N         -80.0762   25.6924  -75.7861 N.am      3 UNK        -0.4254 
     60 C         -81.2812   25.3010  -76.2317 C.2       2 UNK         0.5004 
     61 O         -81.4562   24.4152  -77.0687 O.2       2 UNK        -0.5226 
     62 CA        -82.5092   26.0060  -75.6280 C.3       2 UNK         0.0269 
     63 CB        -83.1216   25.1460  -74.5099 C.3       2 UNK        -0.1926 
     64 N         -82.2390   27.3491  -75.1025 N.am      2 UNK        -0.4687 
     65 C         -81.9146   28.4187  -75.8458 C.2       1 UNK         0.5165 
     66 O         -81.7616   28.3779  -77.0672 O.2       1 UNK        -0.5079 
     67 H67       -85.2137   29.1526  -72.3329 H         1 UNK         0.0900 
     68 H68       -85.0896   30.9141  -72.3280 H         1 UNK         0.0900 
     69 H69       -83.7870   29.9356  -71.6502 H         1 UNK         0.0900 
     70 H70       -82.0107   29.8084  -73.0168 H         1 UNK         0.2959 
     71 H71       -82.1394   30.5231  -75.7907 H         1 UNK         0.1079 
     72 H72       -79.6826   30.0069  -75.7767 H         1 UNK         0.0837 
     73 H73       -80.1773   31.1636  -74.5825 H         1 UNK         0.0837 
     74 H74       -78.1463   27.9569  -75.1431 H         1 UNK         0.0685 
     75 H75       -77.4426   29.4970  -74.7249 H         1 UNK         0.0685 
     76 H76       -78.2783   26.2081  -73.0734 H         1 UNK         0.1434 
     77 H77       -74.6451   26.1676  -70.7851 H         1 UNK         0.1329 
     78 H78       -75.5372   29.4923  -73.3278 H         1 UNK         0.1335 
     79 H79       -73.8279   29.6098  -71.4202 H         1 UNK         0.0680 
     80 H80       -73.2301   28.1159  -70.7297 H         1 UNK         0.0680 
     81 H81       -70.2205   29.3064  -73.0427 H         1 UNK         0.1032 
     82 H82       -70.7985   29.1992  -71.4027 H         1 UNK         0.1032 
     83 H83       -72.1481   31.1985  -71.6373 H         1 UNK         0.0461 
     84 H84       -70.1101   32.8576  -73.8348 H         1 UNK         0.3453 
     85 H85       -68.8856   33.3009  -72.6695 H         1 UNK         0.3453 
     86 H86       -72.0087   30.7828  -74.4782 H         1 UNK         0.2984 
     87 H87       -74.4118   33.3605  -75.0289 H         1 UNK         0.0554 
     88 H88       -73.1856   33.4982  -77.1858 H         1 UNK         0.0847 
     89 H89       -71.7849   32.7099  -76.4629 H         1 UNK         0.0847 
     90 H90       -72.2987   34.2875  -75.8924 H         1 UNK         0.0847 
     91 H91       -75.2281   31.4484  -75.6804 H         1 UNK         0.3141 
     92 H92       -75.3164   29.0546  -75.7988 H         1 UNK         0.0743 
     93 H93       -74.5661   29.6342  -78.7302 H         1 UNK         0.0784 
     94 H94       -75.9545   28.6843  -78.2036 H         1 UNK         0.0784 
     95 H95       -75.8822   30.4012  -77.8503 H         1 UNK         0.0784 
     96 H96       -72.7978   28.1300  -76.8349 H         1 UNK         0.3213 
     97 H97       -72.6349   25.7546  -77.5629 H         1 UNK         0.0855 
     98 H98       -71.5752   24.7285  -75.4907 H         1 UNK         0.0814 
     99 H99       -72.8414   25.4490  -74.4981 H         1 UNK         0.0814 
    100 H100      -71.6943   26.4733  -75.3495 H         1 UNK         0.0814 
    101 H101      -74.8970   24.4062  -76.4149 H         1 UNK         0.3105 
    102 H102      -75.2711   22.2019  -77.9237 H         1 UNK         0.0547 
    103 H103      -72.9877   20.4227  -76.9138 H         1 UNK         0.0837 
    104 H104      -74.5605   19.8370  -77.4553 H         1 UNK         0.0837 
    105 H105      -73.4864   20.6525  -78.5797 H         1 UNK         0.0837 
    106 H106      -76.1315   22.2353  -75.9048 H         1 UNK         0.3020 
    107 H107      -75.3106   21.1805  -72.7786 H         1 UNK         0.1245 
    108 H108      -73.7697   23.1879  -72.5124 H         1 UNK         0.0781 
    109 H109      -74.9778   24.2035  -73.2431 H         1 UNK         0.0781 
    110 H110      -77.6870   24.2127  -71.8958 H         1 UNK         0.0836 
    111 H111      -77.4088   24.8821  -70.3136 H         1 UNK         0.0836 
    112 H112      -77.1467   23.2100  -73.7617 H         1 UNK         0.3022 
    113 H113      -79.4240   21.1363  -75.2895 H         1 UNK         0.0747 
    114 H114      -81.1373   21.7900  -73.6102 H         1 UNK         0.0793 
    115 H115      -80.1218   20.5112  -72.9683 H         1 UNK         0.0793 
    116 H116      -79.8772   22.1677  -72.4335 H         1 UNK         0.0793 
    117 H117      -79.8091   23.7648  -74.3684 H         1 UNK         0.3047 
    118 H118      -78.0189   25.6951  -75.6048 H         1 UNK         0.0822 
    119 H119      -78.6118   26.6462  -77.8417 H         1 UNK         0.0807 
    120 H120      -79.1391   25.0498  -78.3774 H         1 UNK         0.0807 
    121 H121      -77.4547   25.3344  -77.9624 H         1 UNK         0.0807 
    122 H122      -80.0646   26.4309  -75.0969 H         1 UNK         0.2946 
    123 H123      -83.2456   26.1034  -76.4293 H         1 UNK         0.1144 
    124 H124      -84.0514   25.5794  -74.1406 H         1 UNK         0.0793 
    125 H125      -82.4422   25.0368  -73.6637 H         1 UNK         0.0793 
    126 H126      -83.3562   24.1435  -74.8711 H         1 UNK         0.0793 
    127 H127      -82.3503   27.4844  -74.1078 H         1 UNK         0.2896 
@<TRIPOS>BOND
     1    1    2 1    
     2    1   67 1    
     3    1   68 1    
     4    1   69 1    
     5    2    3 2    
     6    2    4 am   BACKBONE|DICT|INTERRES
     7    4    5 1    
     8    4   70 1    
     9    5    6 1    
    10    5   65 1    
    11    5   71 1    
    12    6    7 1    
    13    6   72 1    
    14    6   73 1    
    15    7    8 1    
    16    8    9 1    
    17    8   74 1    
    18    8   75 1    
    19    9   10 ar   
    20    9   14 ar   
    21   10   11 ar   
    22   10   76 1    
    23   11   12 ar   
    24   11   48 1    
    25   12   13 ar   
    26   12   77 1    
    27   13   14 ar   
    28   13   15 1    
    29   14   78 1    
    30   15   16 1    
    31   15   79 1    
    32   15   80 1    
    33   16   17 1    
    34   17   18 1    
    35   17   81 1    
    36   17   82 1    
    37   18   19 1    
    38   18   22 1    
    39   18   83 1    
    40   19   20 am   BACKBONE|DICT|INTERRES
    41   19   21 2    
    42   20   84 1    
    43   20   85 1    
    44   22   23 am   BACKBONE|DICT|INTERRES
    45   22   86 1    
    46   23   24 2    
    47   23   25 1    
    48   25   26 1    
    49   25   27 1    
    50   25   87 1    
    51   26   88 1    
    52   26   89 1    
    53   26   90 1    
    54   27   28 am   BACKBONE|DICT|INTERRES
    55   27   91 1    
    56   28   29 2    
    57   28   30 1    
    58   30   31 1    
    59   30   32 1    
    60   30   92 1    
    61   31   93 1    
    62   31   94 1    
    63   31   95 1    
    64   32   33 am   BACKBONE|DICT|INTERRES
    65   32   96 1    
    66   33   34 2    
    67   33   35 1    
    68   35   36 1    
    69   35   37 1    
    70   35   97 1    
    71   36   98 1    
    72   36   99 1    
    73   36  100 1    
    74   37   38 am   BACKBONE|DICT|INTERRES
    75   37  101 1    
    76   38   39 2    
    77   38   40 1    
    78   40   41 1    
    79   40   42 1    
    80   40  102 1    
    81   41  103 1    
    82   41  104 1    
    83   41  105 1    
    84   42   43 am   BACKBONE|DICT|INTERRES
    85   42  106 1    
    86   43   44 2    
    87   43   45 1    
    88   45   46 1    
    89   45   49 1    
    90   45  107 1    
    91   46   47 1    
    92   46  108 1    
    93   46  109 1    
    94   47   48 1    
    95   48  110 1    
    96   48  111 1    
    97   49   50 am   BACKBONE|DICT|INTERRES
    98   49  112 1    
    99   50   51 2    
   100   50   52 1    
   101   52   53 1    
   102   52   54 1    
   103   52  113 1    
   104   53  114 1    
   105   53  115 1    
   106   53  116 1    
   107   54   55 am   BACKBONE|DICT|INTERRES
   108   54  117 1    
   109   55   56 2    
   110   55   57 1    
   111   57   58 1    
   112   57   59 1    
   113   57  118 1    
   114   58  119 1    
   115   58  120 1    
   116   58  121 1    
   117   59   60 am   BACKBONE|DICT|INTERRES
   118   59  122 1    
   119   60   61 2    
   120   60   62 1    
   121   62   63 1    
   122   62   64 1    
   123   62  123 1    
   124   63  124 1    
   125   63  125 1    
   126   63  126 1    
   127   64   65 am   BACKBONE|DICT|INTERRES
   128   64  127 1    
   129   65   66 2    
@<TRIPOS>SUBSTRUCTURE
     1 UNK         1 GROUP             0       ****    0 ROOT    
