@<TRIPOS>MOLECULE
3R135
127   129    1
SMALL
USER_CHARGES


@<TRIPOS>ATOM
      1 CA        -85.9531   26.1467  -71.7448 C.3       0 UNK        -0.1998 
      2 C         -85.1727   26.8719  -72.8313 C.2       0 UNK         0.4909 
      3 O         -85.7627   27.3028  -73.8233 O.2       0 UNK        -0.5240 
      4 N         -83.8543   27.0165  -72.6467 N.am      1 UNK        -0.4739 
      5 CA        -82.9354   27.6192  -73.6194 C.3       1 UNK         0.0864 
      6 C6        -81.7040   28.2510  -72.9155 C.3       11 UNK        -0.0881 
      7 S7        -81.1182   29.7502  -73.7780 S.3       11 UNK        -0.2682 
      8 C8        -80.1844   30.5847  -72.4581 C.3       11 UNK         0.0289 
      9 C9        -78.8309   29.9280  -72.2354 C.ar      11 UNK        -0.0687 
     10 C10       -78.6988   28.8670  -71.3349 C.ar      11 UNK        -0.0823 
     11 C11       -77.4595   28.2521  -71.1334 C.ar      11 UNK        -0.0830 
     12 C12       -76.3429   28.7286  -71.8294 C.ar      11 UNK        -0.1021 
     13 C13       -76.4593   29.7906  -72.7303 C.ar      11 UNK        -0.0753 
     14 C14       -77.7078   30.3854  -72.9301 C.ar      11 UNK        -0.0933 
     15 C15       -75.2474   30.2822  -73.5081 C.3       11 UNK         0.0166 
     16 S16       -74.2095   31.4045  -72.5203 S.3       11 UNK        -0.2615 
     17 C17       -72.9906   30.2527  -71.7903 C.3       11 UNK        -0.0865 
     18 CA        -71.6488   30.2447  -72.5702 C.3       10 UNK         0.0862 
     19 C         -70.5395   29.4529  -71.8153 C.2       10 UNK         0.5551 
     20 N         -69.8160   28.5345  -72.4465 N.am      10 UNK        -0.7319 
     21 O         -70.3196   29.6861  -70.6293 O.2       10 UNK        -0.5018 
     22 N         -71.8438   29.8034  -73.9595 N.am      10 UNK        -0.4509 
     23 C         -71.1810   30.2779  -75.0193 C.2       10 UNK         0.4899 
     24 O         -70.3558   31.1913  -74.9627 O.2       10 UNK        -0.4839 
     25 CA        -71.4987   29.6022  -76.3678 C.3       9 UNK         0.0222 
     26 CB        -70.4422   29.9026  -77.4519 C.3       9 UNK        -0.1966 
     27 N         -71.7254   28.1540  -76.2586 N.am      9 UNK        -0.4218 
     28 C         -70.8692   27.2320  -75.7849 C.2       9 UNK         0.5020 
     29 O         -69.7719   27.5131  -75.3000 O.2       9 UNK        -0.5274 
     30 CA        -71.2922   25.7486  -75.8246 C.3       8 UNK         0.0270 
     31 CB        -71.4227   25.1872  -74.3982 C.3       8 UNK        -0.1976 
     32 N         -72.5368   25.4956  -76.5554 N.am      8 UNK        -0.4313 
     33 C         -72.6868   25.5868  -77.8844 C.2       8 UNK         0.5041 
     34 O         -71.7584   25.8073  -78.6627 O.2       8 UNK        -0.5577 
     35 CA        -74.1180   25.4577  -78.4397 C.3       7 UNK         0.0284 
     36 CB        -74.3975   24.0099  -78.8679 C.3       7 UNK        -0.1958 
     37 N         -75.1604   25.9151  -77.5102 N.am      7 UNK        -0.4454 
     38 C         -75.2664   27.1715  -77.0476 C.2       7 UNK         0.5089 
     39 O         -74.4898   28.0784  -77.3480 O.2       7 UNK        -0.5125 
     40 CA        -76.3971   27.4588  -76.0481 C.3       6 UNK         0.0408 
     41 CB        -77.7195   27.7102  -76.7812 C.3       6 UNK        -0.1791 
     42 N         -76.5569   26.3840  -75.0670 N.am      6 UNK        -0.4762 
     43 C         -75.6567   26.1211  -74.1062 C.2       6 UNK         0.5007 
     44 O         -74.6314   26.7814  -73.9316 O.2       6 UNK        -0.5032 
     45 CA        -75.9046   24.8672  -73.2451 C.3       5 UNK         0.0783 
     46 C46       -76.9496   25.1058  -72.1244 C.3       11 UNK        -0.0857 
     47 S47       -76.1765   25.7860  -70.6190 S.3       11 UNK        -0.2512 
     48 C48       -77.3492   27.0998  -70.1369 C.3       11 UNK         0.0225 
     49 N         -76.2413   23.7057  -74.0710 N.am      5 UNK        -0.4615 
     50 C         -75.4061   23.1333  -74.9495 C.2       4 UNK         0.5053 
     51 O         -74.2569   23.5204  -75.1541 O.2       4 UNK        -0.5105 
     52 CA        -75.9456   21.9377  -75.7513 C.3       4 UNK         0.0263 
     53 CB        -75.6290   20.6216  -75.0237 C.3       4 UNK        -0.1981 
     54 N         -77.3824   22.0085  -76.0247 N.am      4 UNK        -0.4224 
     55 C         -77.9987   22.9762  -76.7183 C.2       3 UNK         0.4895 
     56 O         -77.4096   23.9381  -77.2208 O.2       3 UNK        -0.5091 
     57 CA        -79.5247   22.8200  -76.8889 C.3       3 UNK         0.0250 
     58 CB        -80.2002   22.0688  -75.7172 C.3       3 UNK        -0.1996 
     59 N         -80.2218   24.0875  -77.1313 N.am      3 UNK        -0.4254 
     60 C         -80.2509   25.1685  -76.3379 C.2       2 UNK         0.5004 
     61 O         -79.5974   25.2787  -75.2953 O.2       2 UNK        -0.5226 
     62 CA        -81.1501   26.3376  -76.8037 C.3       2 UNK         0.0269 
     63 CB        -82.2603   25.9223  -77.7980 C.3       2 UNK        -0.1926 
     64 N         -81.7296   27.0832  -75.6796 N.am      2 UNK        -0.4687 
     65 C         -82.5243   26.6041  -74.7113 C.2       1 UNK         0.5165 
     66 O         -82.9152   25.4338  -74.6566 O.2       1 UNK        -0.5079 
     67 H67       -85.3120   25.8361  -70.9200 H         1 UNK         0.0900 
     68 H68       -86.4302   25.2577  -72.1565 H         1 UNK         0.0900 
     69 H69       -86.7305   26.7963  -71.3436 H         1 UNK         0.0900 
     70 H70       -83.4219   26.6040  -71.8325 H         1 UNK         0.2959 
     71 H71       -83.4854   28.4145  -74.1287 H         1 UNK         0.1079 
     72 H72       -81.9691   28.5471  -71.8991 H         1 UNK         0.0837 
     73 H73       -80.8821   27.5385  -72.8139 H         1 UNK         0.0837 
     74 H74       -80.0462   31.6306  -72.7364 H         1 UNK         0.0685 
     75 H75       -80.7645   30.5934  -71.5341 H         1 UNK         0.0685 
     76 H76       -79.5665   28.5179  -70.7923 H         1 UNK         0.1434 
     77 H77       -75.3817   28.2607  -71.6804 H         1 UNK         0.1329 
     78 H78       -77.8077   31.2039  -73.6298 H         1 UNK         0.1335 
     79 H79       -75.5700   30.8122  -74.4055 H         1 UNK         0.0680 
     80 H80       -74.6583   29.4357  -73.8599 H         1 UNK         0.0680 
     81 H81       -73.4002   29.2449  -71.7310 H         1 UNK         0.1032 
     82 H82       -72.8306   30.5703  -70.7582 H         1 UNK         0.1032 
     83 H83       -71.2915   31.2761  -72.5874 H         1 UNK         0.0461 
     84 H84       -69.1009   28.0418  -71.9360 H         1 UNK         0.3453 
     85 H85       -69.9439   28.3476  -73.4343 H         1 UNK         0.3453 
     86 H86       -72.4774   29.0295  -74.0958 H         1 UNK         0.2984 
     87 H87       -72.4444   30.0301  -76.7032 H         1 UNK         0.0554 
     88 H88       -70.7029   29.4323  -78.4001 H         1 UNK         0.0847 
     89 H89       -69.4530   29.5465  -77.1618 H         1 UNK         0.0847 
     90 H90       -70.3613   30.9748  -77.6351 H         1 UNK         0.0847 
     91 H91       -72.6235   27.8386  -76.6135 H         1 UNK         0.3141 
     92 H92       -70.4917   25.2045  -76.3298 H         1 UNK         0.0743 
     93 H93       -72.2098   25.6899  -73.8362 H         1 UNK         0.0784 
     94 H94       -71.6485   24.1207  -74.4106 H         1 UNK         0.0784 
     95 H95       -70.4942   25.3122  -73.8394 H         1 UNK         0.0784 
     96 H96       -73.3399   25.2205  -75.9990 H         1 UNK         0.3213 
     97 H97       -74.1804   26.0909  -79.3273 H         1 UNK         0.0855 
     98 H98       -74.2634   23.3176  -78.0386 H         1 UNK         0.0814 
     99 H99       -73.7125   23.7013  -79.6586 H         1 UNK         0.0814 
    100 H100      -75.4112   23.8912  -79.2512 H         1 UNK         0.0814 
    101 H101      -75.8662   25.2356  -77.2386 H         1 UNK         0.3105 
    102 H102      -76.1424   28.3718  -75.5078 H         1 UNK         0.0547 
    103 H103      -77.6302   28.5546  -77.4658 H         1 UNK         0.0837 
    104 H104      -78.0197   26.8433  -77.3702 H         1 UNK         0.0837 
    105 H105      -78.5191   27.9453  -76.0782 H         1 UNK         0.0837 
    106 H106      -77.3742   25.7911  -75.1610 H         1 UNK         0.3020 
    107 H107      -74.9485   24.6243  -72.7742 H         1 UNK         0.1245 
    108 H108      -77.7700   25.7415  -72.4650 H         1 UNK         0.0781 
    109 H109      -77.4124   24.1627  -71.8295 H         1 UNK         0.0781 
    110 H110      -78.3260   26.6420  -69.9723 H         1 UNK         0.0836 
    111 H111      -77.0352   27.5075  -69.1752 H         1 UNK         0.0836 
    112 H112      -77.1777   23.3397  -73.9851 H         1 UNK         0.3022 
    113 H113      -75.4317   21.9213  -76.7125 H         1 UNK         0.0747 
    114 H114      -75.9204   19.7569  -75.6203 H         1 UNK         0.0793 
    115 H115      -74.5590   20.5317  -74.8295 H         1 UNK         0.0793 
    116 H116      -76.1408   20.5562  -74.0626 H         1 UNK         0.0793 
    117 H117      -77.9463   21.2554  -75.6579 H         1 UNK         0.3047 
    118 H118      -79.6645   22.2236  -77.7916 H         1 UNK         0.0822 
    119 H119      -81.2827   22.0382  -75.8439 H         1 UNK         0.0807 
    120 H120      -79.9976   22.5477  -74.7581 H         1 UNK         0.0807 
    121 H121      -79.8664   21.0328  -75.6518 H         1 UNK         0.0807 
    122 H122      -80.7574   24.1254  -77.9867 H         1 UNK         0.2946 
    123 H123      -80.4942   27.0354  -77.3246 H         1 UNK         0.1144 
    124 H124      -82.8980   25.1356  -77.3923 H         1 UNK         0.0793 
    125 H125      -81.8429   25.5620  -78.7388 H         1 UNK         0.0793 
    126 H126      -82.9009   26.7688  -78.0459 H         1 UNK         0.0793 
    127 H127      -81.4231   28.0435  -75.5892 H         1 UNK         0.2896 
@<TRIPOS>BOND
     1    1    2 1    
     2    1   67 1    
     3    1   68 1    
     4    1   69 1    
     5    2    3 2    
     6    2    4 am   BACKBONE|DICT|INTERRES
     7    4    5 1    
     8    4   70 1    
     9    5    6 1    
    10    5   65 1    
    11    5   71 1    
    12    6    7 1    
    13    6   72 1    
    14    6   73 1    
    15    7    8 1    
    16    8    9 1    
    17    8   74 1    
    18    8   75 1    
    19    9   10 ar   
    20    9   14 ar   
    21   10   11 ar   
    22   10   76 1    
    23   11   12 ar   
    24   11   48 1    
    25   12   13 ar   
    26   12   77 1    
    27   13   14 ar   
    28   13   15 1    
    29   14   78 1    
    30   15   16 1    
    31   15   79 1    
    32   15   80 1    
    33   16   17 1    
    34   17   18 1    
    35   17   81 1    
    36   17   82 1    
    37   18   19 1    
    38   18   22 1    
    39   18   83 1    
    40   19   20 am   BACKBONE|DICT|INTERRES
    41   19   21 2    
    42   20   84 1    
    43   20   85 1    
    44   22   23 am   BACKBONE|DICT|INTERRES
    45   22   86 1    
    46   23   24 2    
    47   23   25 1    
    48   25   26 1    
    49   25   27 1    
    50   25   87 1    
    51   26   88 1    
    52   26   89 1    
    53   26   90 1    
    54   27   28 am   BACKBONE|DICT|INTERRES
    55   27   91 1    
    56   28   29 2    
    57   28   30 1    
    58   30   31 1    
    59   30   32 1    
    60   30   92 1    
    61   31   93 1    
    62   31   94 1    
    63   31   95 1    
    64   32   33 am   BACKBONE|DICT|INTERRES
    65   32   96 1    
    66   33   34 2    
    67   33   35 1    
    68   35   36 1    
    69   35   37 1    
    70   35   97 1    
    71   36   98 1    
    72   36   99 1    
    73   36  100 1    
    74   37   38 am   BACKBONE|DICT|INTERRES
    75   37  101 1    
    76   38   39 2    
    77   38   40 1    
    78   40   41 1    
    79   40   42 1    
    80   40  102 1    
    81   41  103 1    
    82   41  104 1    
    83   41  105 1    
    84   42   43 am   BACKBONE|DICT|INTERRES
    85   42  106 1    
    86   43   44 2    
    87   43   45 1    
    88   45   46 1    
    89   45   49 1    
    90   45  107 1    
    91   46   47 1    
    92   46  108 1    
    93   46  109 1    
    94   47   48 1    
    95   48  110 1    
    96   48  111 1    
    97   49   50 am   BACKBONE|DICT|INTERRES
    98   49  112 1    
    99   50   51 2    
   100   50   52 1    
   101   52   53 1    
   102   52   54 1    
   103   52  113 1    
   104   53  114 1    
   105   53  115 1    
   106   53  116 1    
   107   54   55 am   BACKBONE|DICT|INTERRES
   108   54  117 1    
   109   55   56 2    
   110   55   57 1    
   111   57   58 1    
   112   57   59 1    
   113   57  118 1    
   114   58  119 1    
   115   58  120 1    
   116   58  121 1    
   117   59   60 am   BACKBONE|DICT|INTERRES
   118   59  122 1    
   119   60   61 2    
   120   60   62 1    
   121   62   63 1    
   122   62   64 1    
   123   62  123 1    
   124   63  124 1    
   125   63  125 1    
   126   63  126 1    
   127   64   65 am   BACKBONE|DICT|INTERRES
   128   64  127 1    
   129   65   66 2    
@<TRIPOS>SUBSTRUCTURE
     1 UNK         1 GROUP             0       ****    0 ROOT    
