@<TRIPOS>MOLECULE
3R135
127   129    1
SMALL
USER_CHARGES


@<TRIPOS>ATOM
      1 CA        -80.6616   22.3296  -71.4244 C.3       0 UNK        -0.1998 
      2 C         -80.3879   23.7391  -71.9267 C.2       0 UNK         0.4909 
      3 O         -79.3150   23.9810  -72.4758 O.2       0 UNK        -0.5240 
      4 N         -81.3624   24.6440  -71.7484 N.am      1 UNK        -0.4739 
      5 CA        -81.3743   26.0748  -72.0914 C.3       1 UNK         0.0864 
      6 C6        -80.7803   26.9763  -70.9749 C.3       11 UNK        -0.0881 
      7 S7        -81.6695   28.5704  -70.9160 S.3       11 UNK        -0.2682 
      8 C8        -80.4812   29.6558  -70.0640 C.3       11 UNK         0.0289 
      9 C9        -79.2791   30.0615  -70.9126 C.ar      11 UNK        -0.0687 
     10 C10       -79.4207   30.4513  -72.2507 C.ar      11 UNK        -0.0823 
     11 C11       -78.3128   30.8713  -72.9967 C.ar      11 UNK        -0.0830 
     12 C12       -77.0535   30.9065  -72.3875 C.ar      11 UNK        -0.1021 
     13 C13       -76.8981   30.5165  -71.0536 C.ar      11 UNK        -0.0753 
     14 C14       -78.0139   30.1020  -70.3230 C.ar      11 UNK        -0.0933 
     15 C15       -75.5252   30.5408  -70.3959 C.3       11 UNK         0.0166 
     16 S16       -74.9802   28.8773  -69.8900 S.3       11 UNK        -0.2615 
     17 C17       -74.8690   28.0355  -71.5032 C.3       11 UNK        -0.0865 
     18 CA        -73.4060   27.9552  -72.0199 C.3       10 UNK         0.0862 
     19 C         -72.7219   26.5970  -71.7106 C.2       10 UNK         0.5551 
     20 N         -72.6460   26.2212  -70.4419 N.am      10 UNK        -0.7319 
     21 O         -72.2678   25.8784  -72.5984 O.2       10 UNK        -0.5018 
     22 N         -73.3205   28.2875  -73.4431 N.am      10 UNK        -0.4509 
     23 C         -73.1618   29.5174  -73.9458 C.2       10 UNK         0.4899 
     24 O         -73.1692   30.5396  -73.2591 O.2       10 UNK        -0.4839 
     25 CA        -72.9732   29.6332  -75.4737 C.3       9 UNK         0.0222 
     26 CB        -72.0873   30.8338  -75.8714 C.3       9 UNK        -0.1966 
     27 N         -72.5039   28.3911  -76.1133 N.am      9 UNK        -0.4218 
     28 C         -71.3348   27.7721  -75.8783 C.2       9 UNK         0.5020 
     29 O         -70.4824   28.2126  -75.1050 O.2       9 UNK        -0.5274 
     30 CA        -71.0525   26.4501  -76.6107 C.3       8 UNK         0.0270 
     31 CB        -70.1671   25.5004  -75.7731 C.3       8 UNK        -0.1976 
     32 N         -72.2635   25.7403  -77.0409 N.am      8 UNK        -0.4313 
     33 C         -72.2743   24.8940  -78.0816 C.2       8 UNK         0.5041 
     34 O         -71.3204   24.7358  -78.8461 O.2       8 UNK        -0.5577 
     35 CA        -73.5387   24.0497  -78.2979 C.3       7 UNK         0.0284 
     36 CB        -73.6641   22.9732  -77.2074 C.3       7 UNK        -0.1958 
     37 N         -74.7643   24.8441  -78.3712 N.am      7 UNK        -0.4454 
     38 C         -75.0556   25.6976  -79.3635 C.2       7 UNK         0.5089 
     39 O         -74.3186   25.9114  -80.3267 O.2       7 UNK        -0.5125 
     40 CA        -76.4015   26.4378  -79.2761 C.3       6 UNK         0.0408 
     41 CB        -77.5244   25.5786  -79.8776 C.3       6 UNK        -0.1791 
     42 N         -76.7570   26.8330  -77.9108 N.am      6 UNK        -0.4762 
     43 C         -76.0700   27.7254  -77.1827 C.2       6 UNK         0.5007 
     44 O         -75.0781   28.3198  -77.6048 O.2       6 UNK        -0.5032 
     45 CA        -76.5168   27.9371  -75.7201 C.3       5 UNK         0.0783 
     46 C46       -77.7601   28.8518  -75.6043 C.3       11 UNK        -0.0857 
     47 S47       -77.2993   30.6150  -75.6172 S.3       11 UNK        -0.2512 
     48 C48       -78.4994   31.3319  -74.4413 C.3       11 UNK         0.0225 
     49 N         -76.6919   26.6647  -75.0211 N.am      5 UNK        -0.4615 
     50 C         -75.7038   25.7871  -74.7939 C.2       4 UNK         0.5053 
     51 O         -74.5251   25.9824  -75.1031 O.2       4 UNK        -0.5105 
     52 CA        -76.1092   24.4515  -74.1514 C.3       4 UNK         0.0263 
     53 CB        -76.1140   24.5578  -72.6204 C.3       4 UNK        -0.1981 
     54 N         -77.4171   23.9814  -74.6161 N.am      4 UNK        -0.4224 
     55 C         -77.6596   23.5778  -75.8717 C.2       3 UNK         0.4895 
     56 O         -76.8089   23.5595  -76.7602 O.2       3 UNK        -0.5091 
     57 CA        -79.0978   23.1598  -76.2084 C.3       3 UNK         0.0250 
     58 CB        -79.4654   21.8329  -75.5243 C.3       3 UNK        -0.1996 
     59 N         -80.0816   24.1879  -75.8675 N.am      3 UNK        -0.4254 
     60 C         -80.1315   25.4137  -76.4095 C.2       2 UNK         0.5004 
     61 O         -79.3342   25.8307  -77.2468 O.2       2 UNK        -0.5226 
     62 CA        -81.2530   26.3450  -75.9252 C.3       2 UNK         0.0269 
     63 CB        -82.4987   26.1966  -76.8130 C.3       2 UNK        -0.1926 
     64 N         -81.6199   26.1247  -74.5246 N.am      2 UNK        -0.4687 
     65 C         -80.8054   26.3845  -73.4928 C.2       1 UNK         0.5165 
     66 O         -79.6558   26.8095  -73.6270 O.2       1 UNK        -0.5079 
     67 H67       -80.6984   21.6323  -72.2607 H         1 UNK         0.0900 
     68 H68       -79.8652   22.0123  -70.7517 H         1 UNK         0.0900 
     69 H69       -81.6059   22.2630  -70.8845 H         1 UNK         0.0900 
     70 H70       -82.2150   24.3247  -71.3091 H         1 UNK         0.2959 
     71 H71       -82.4401   26.3038  -72.1512 H         1 UNK         0.1079 
     72 H72       -80.9038   26.5038  -69.9993 H         1 UNK         0.0837 
     73 H73       -79.7064   27.1331  -71.0953 H         1 UNK         0.0837 
     74 H74       -81.0027   30.5635  -69.7581 H         1 UNK         0.0685 
     75 H75       -80.1599   29.1620  -69.1454 H         1 UNK         0.0685 
     76 H76       -80.4007   30.4398  -72.7073 H         1 UNK         0.1434 
     77 H77       -76.1925   31.2360  -72.9537 H         1 UNK         0.1329 
     78 H78       -77.8908   29.8112  -69.2885 H         1 UNK         0.1335 
     79 H79       -75.5620   31.1845  -69.5161 H         1 UNK         0.0680 
     80 H80       -74.7781   30.9726  -71.0634 H         1 UNK         0.0680 
     81 H81       -75.3181   27.0479  -71.4011 H         1 UNK         0.1032 
     82 H82       -75.5058   28.5495  -72.2233 H         1 UNK         0.1032 
     83 H83       -72.7946   28.6935  -71.4967 H         1 UNK         0.0461 
     84 H84       -73.0252   26.8019  -69.7094 H         1 UNK         0.3453 
     85 H85       -72.2067   25.3434  -70.2138 H         1 UNK         0.3453 
     86 H86       -73.2830   27.4843  -74.0613 H         1 UNK         0.2984 
     87 H87       -73.9639   29.8374  -75.8760 H         1 UNK         0.0554 
     88 H88       -72.5291   31.7731  -75.5365 H         1 UNK         0.0847 
     89 H89       -71.9725   30.9012  -76.9531 H         1 UNK         0.0847 
     90 H90       -71.0923   30.7710  -75.4301 H         1 UNK         0.0847 
     91 H91       -73.1517   27.9883  -76.7824 H         1 UNK         0.3141 
     92 H92       -70.4858   26.7414  -77.4976 H         1 UNK         0.0743 
     93 H93       -70.6715   25.1950  -74.8554 H         1 UNK         0.0784 
     94 H94       -69.9066   24.5989  -76.3277 H         1 UNK         0.0784 
     95 H95       -69.2282   25.9769  -75.4884 H         1 UNK         0.0784 
     96 H96       -73.0784   25.8005  -76.4329 H         1 UNK         0.3213 
     97 H97       -73.4269   23.5355  -79.2551 H         1 UNK         0.0855 
     98 H98       -73.8268   23.4111  -76.2229 H         1 UNK         0.0814 
     99 H99       -72.7577   22.3691  -77.1491 H         1 UNK         0.0814 
    100 H100      -74.4909   22.2937  -77.4139 H         1 UNK         0.0814 
    101 H101      -75.4698   24.6647  -77.6616 H         1 UNK         0.3105 
    102 H102      -76.3175   27.3482  -79.8731 H         1 UNK         0.0547 
    103 H103      -78.4666   26.1257  -79.9118 H         1 UNK         0.0837 
    104 H104      -77.6881   24.6680  -79.2995 H         1 UNK         0.0837 
    105 H105      -77.2856   25.2801  -80.8992 H         1 UNK         0.0837 
    106 H106      -77.5861   26.3926  -77.5144 H         1 UNK         0.3020 
    107 H107      -75.6937   28.4306  -75.2034 H         1 UNK         0.1245 
    108 H108      -78.2696   28.6593  -74.6610 H         1 UNK         0.0781 
    109 H109      -78.4949   28.6516  -76.3865 H         1 UNK         0.0781 
    110 H110      -79.5064   31.1029  -74.7939 H         1 UNK         0.0836 
    111 H111      -78.4058   32.4181  -74.4703 H         1 UNK         0.0836 
    112 H112      -77.6312   26.4356  -74.7189 H         1 UNK         0.3022 
    113 H113      -75.3648   23.7051  -74.4337 H         1 UNK         0.0747 
    114 H114      -76.3874   23.6085  -72.1595 H         1 UNK         0.0793 
    115 H115      -75.1249   24.8227  -72.2471 H         1 UNK         0.0793 
    116 H116      -76.8211   25.3116  -72.2708 H         1 UNK         0.0793 
    117 H117      -78.1739   23.9881  -73.9324 H         1 UNK         0.3047 
    118 H118      -79.1481   23.0066  -77.2887 H         1 UNK         0.0822 
    119 H119      -80.4550   21.4905  -75.8272 H         1 UNK         0.0807 
    120 H120      -79.4572   21.9186  -74.4377 H         1 UNK         0.0807 
    121 H121      -78.7566   21.0484  -75.7932 H         1 UNK         0.0807 
    122 H122      -80.7622   23.9544  -75.1601 H         1 UNK         0.2946 
    123 H123      -80.8845   27.3693  -76.0200 H         1 UNK         0.1144 
    124 H124      -83.2714   26.9142  -76.5363 H         1 UNK         0.0793 
    125 H125      -82.9279   25.1961  -76.7458 H         1 UNK         0.0793 
    126 H126      -82.2532   26.3761  -77.8608 H         1 UNK         0.0793 
    127 H127      -82.5443   25.7591  -74.3445 H         1 UNK         0.2896 
@<TRIPOS>BOND
     1    1    2 1    
     2    1   67 1    
     3    1   68 1    
     4    1   69 1    
     5    2    3 2    
     6    2    4 am   BACKBONE|DICT|INTERRES
     7    4    5 1    
     8    4   70 1    
     9    5    6 1    
    10    5   65 1    
    11    5   71 1    
    12    6    7 1    
    13    6   72 1    
    14    6   73 1    
    15    7    8 1    
    16    8    9 1    
    17    8   74 1    
    18    8   75 1    
    19    9   10 ar   
    20    9   14 ar   
    21   10   11 ar   
    22   10   76 1    
    23   11   12 ar   
    24   11   48 1    
    25   12   13 ar   
    26   12   77 1    
    27   13   14 ar   
    28   13   15 1    
    29   14   78 1    
    30   15   16 1    
    31   15   79 1    
    32   15   80 1    
    33   16   17 1    
    34   17   18 1    
    35   17   81 1    
    36   17   82 1    
    37   18   19 1    
    38   18   22 1    
    39   18   83 1    
    40   19   20 am   BACKBONE|DICT|INTERRES
    41   19   21 2    
    42   20   84 1    
    43   20   85 1    
    44   22   23 am   BACKBONE|DICT|INTERRES
    45   22   86 1    
    46   23   24 2    
    47   23   25 1    
    48   25   26 1    
    49   25   27 1    
    50   25   87 1    
    51   26   88 1    
    52   26   89 1    
    53   26   90 1    
    54   27   28 am   BACKBONE|DICT|INTERRES
    55   27   91 1    
    56   28   29 2    
    57   28   30 1    
    58   30   31 1    
    59   30   32 1    
    60   30   92 1    
    61   31   93 1    
    62   31   94 1    
    63   31   95 1    
    64   32   33 am   BACKBONE|DICT|INTERRES
    65   32   96 1    
    66   33   34 2    
    67   33   35 1    
    68   35   36 1    
    69   35   37 1    
    70   35   97 1    
    71   36   98 1    
    72   36   99 1    
    73   36  100 1    
    74   37   38 am   BACKBONE|DICT|INTERRES
    75   37  101 1    
    76   38   39 2    
    77   38   40 1    
    78   40   41 1    
    79   40   42 1    
    80   40  102 1    
    81   41  103 1    
    82   41  104 1    
    83   41  105 1    
    84   42   43 am   BACKBONE|DICT|INTERRES
    85   42  106 1    
    86   43   44 2    
    87   43   45 1    
    88   45   46 1    
    89   45   49 1    
    90   45  107 1    
    91   46   47 1    
    92   46  108 1    
    93   46  109 1    
    94   47   48 1    
    95   48  110 1    
    96   48  111 1    
    97   49   50 am   BACKBONE|DICT|INTERRES
    98   49  112 1    
    99   50   51 2    
   100   50   52 1    
   101   52   53 1    
   102   52   54 1    
   103   52  113 1    
   104   53  114 1    
   105   53  115 1    
   106   53  116 1    
   107   54   55 am   BACKBONE|DICT|INTERRES
   108   54  117 1    
   109   55   56 2    
   110   55   57 1    
   111   57   58 1    
   112   57   59 1    
   113   57  118 1    
   114   58  119 1    
   115   58  120 1    
   116   58  121 1    
   117   59   60 am   BACKBONE|DICT|INTERRES
   118   59  122 1    
   119   60   61 2    
   120   60   62 1    
   121   62   63 1    
   122   62   64 1    
   123   62  123 1    
   124   63  124 1    
   125   63  125 1    
   126   63  126 1    
   127   64   65 am   BACKBONE|DICT|INTERRES
   128   64  127 1    
   129   65   66 2    
@<TRIPOS>SUBSTRUCTURE
     1 UNK         1 GROUP             0       ****    0 ROOT    
