@<TRIPOS>MOLECULE
3R135
127   129    1
SMALL
USER_CHARGES


@<TRIPOS>ATOM
      1 CA        -84.2193   26.7192  -71.7988 C.3       0 UNK        -0.1998 
      2 C         -82.8004   26.8705  -71.2575 C.2       0 UNK         0.4909 
      3 O         -82.5484   26.5020  -70.1123 O.2       0 UNK        -0.5240 
      4 N         -81.8416   27.4049  -72.0269 N.am      1 UNK        -0.4739 
      5 CA        -81.9710   27.8594  -73.4197 C.3       1 UNK         0.0864 
      6 C6        -80.8532   28.8646  -73.7869 C.3       11 UNK        -0.0881 
      7 S7        -81.0478   30.4710  -72.9342 S.3       11 UNK        -0.2682 
      8 C8        -79.9737   30.3242  -71.4637 C.3       11 UNK         0.0289 
      9 C9        -78.5485   29.9109  -71.8053 C.ar      11 UNK        -0.0687 
     10 C10       -78.0114   28.7393  -71.2634 C.ar      11 UNK        -0.0823 
     11 C11       -76.7321   28.3086  -71.6289 C.ar      11 UNK        -0.0830 
     12 C12       -75.9796   29.0765  -72.5212 C.ar      11 UNK        -0.1021 
     13 C13       -76.4908   30.2681  -73.0418 C.ar      11 UNK        -0.0753 
     14 C14       -77.7752   30.6818  -72.6791 C.ar      11 UNK        -0.0933 
     15 C15       -75.6729   31.0861  -74.0286 C.3       11 UNK         0.0166 
     16 S16       -74.8801   32.5319  -73.2523 S.3       11 UNK        -0.2615 
     17 C17       -73.6284   31.7895  -72.1439 C.3       11 UNK        -0.0865 
     18 CA        -72.1972   31.7912  -72.7636 C.3       10 UNK         0.0862 
     19 C         -71.0460   31.4753  -71.7558 C.2       10 UNK         0.5551 
     20 N         -71.2258   31.7150  -70.4629 N.am      10 UNK        -0.7319 
     21 O         -69.9520   31.0711  -72.1467 O.2       10 UNK        -0.5018 
     22 N         -72.1289   30.9836  -73.9940 N.am      10 UNK        -0.4509 
     23 C         -72.2082   29.6476  -74.0682 C.2       10 UNK         0.4899 
     24 O         -72.3357   28.9097  -73.0882 O.2       10 UNK        -0.4839 
     25 CA        -72.2233   29.0632  -75.4932 C.3       9 UNK         0.0222 
     26 CB        -71.0754   29.5970  -76.3797 C.3       9 UNK        -0.1966 
     27 N         -72.2774   27.5985  -75.5056 N.am      9 UNK        -0.4218 
     28 C         -71.3093   26.7218  -75.2008 C.2       9 UNK         0.5020 
     29 O         -70.1653   27.0303  -74.8622 O.2       9 UNK        -0.5274 
     30 CA        -71.6734   25.2290  -75.3205 C.3       8 UNK         0.0270 
     31 CB        -72.1648   24.6830  -73.9698 C.3       8 UNK        -0.1976 
     32 N         -72.6766   24.9586  -76.3577 N.am      8 UNK        -0.4313 
     33 C         -72.4679   25.1091  -77.6748 C.2       8 UNK         0.5041 
     34 O         -71.3776   25.4065  -78.1650 O.2       8 UNK        -0.5577 
     35 CA        -73.6771   24.9133  -78.6066 C.3       7 UNK         0.0284 
     36 CB        -73.8960   23.4224  -78.9089 C.3       7 UNK        -0.1958 
     37 N         -74.9102   25.5006  -78.0754 N.am      7 UNK        -0.4454 
     38 C         -75.1220   26.8152  -77.9118 C.2       7 UNK         0.5089 
     39 O         -74.3247   27.6872  -78.2566 O.2       7 UNK        -0.5125 
     40 CA        -76.4269   27.2306  -77.2066 C.3       6 UNK         0.0408 
     41 CB        -77.5962   27.2916  -78.2009 C.3       6 UNK        -0.1791 
     42 N         -76.7769   26.3527  -76.0875 N.am      6 UNK        -0.4762 
     43 C         -76.0207   26.1737  -74.9946 C.2       6 UNK         0.5007 
     44 O         -74.9585   26.7613  -74.7950 O.2       6 UNK        -0.5032 
     45 CA        -76.5080   25.1158  -73.9870 C.3       5 UNK         0.0783 
     46 C46       -77.6567   25.6627  -73.0952 C.3       11 UNK        -0.0857 
     47 S47       -77.2720   25.5727  -71.3169 S.3       11 UNK        -0.2512 
     48 C48       -76.1617   27.0043  -71.0844 C.3       11 UNK         0.0225 
     49 N         -76.8932   23.8838  -74.6783 N.am      5 UNK        -0.4615 
     50 C         -76.0506   23.0679  -75.3243 C.2       4 UNK         0.5053 
     51 O         -74.8324   23.2333  -75.3621 O.2       4 UNK        -0.5105 
     52 CA        -76.6828   21.8942  -76.0923 C.3       4 UNK         0.0263 
     53 CB        -76.8719   20.6833  -75.1655 C.3       4 UNK        -0.1981 
     54 N         -77.9665   22.2488  -76.7058 N.am      4 UNK        -0.4224 
     55 C         -78.1077   23.1402  -77.6981 C.2       3 UNK         0.4895 
     56 O         -77.1632   23.7054  -78.2472 O.2       3 UNK        -0.5091 
     57 CA        -79.5449   23.5041  -78.1097 C.3       3 UNK         0.0250 
     58 CB        -80.0741   22.5125  -79.1579 C.3       3 UNK        -0.1996 
     59 N         -80.4802   23.5770  -76.9801 N.am      3 UNK        -0.4254 
     60 C         -80.3597   24.4194  -75.9442 C.2       2 UNK         0.5004 
     61 O         -79.4253   25.2143  -75.8160 O.2       2 UNK        -0.5226 
     62 CA        -81.4229   24.3001  -74.8384 C.3       2 UNK         0.0269 
     63 CB        -81.1138   23.1010  -73.9254 C.3       2 UNK        -0.1926 
     64 N         -81.5062   25.5077  -74.0125 N.am      2 UNK        -0.4687 
     65 C         -81.9945   26.6864  -74.4254 C.2       1 UNK         0.5165 
     66 O         -82.4816   26.8646  -75.5426 O.2       1 UNK        -0.5079 
     67 H67       -84.8735   26.2960  -71.0367 H         1 UNK         0.0900 
     68 H68       -84.2438   26.0522  -72.6596 H         1 UNK         0.0900 
     69 H69       -84.6330   27.6853  -72.0859 H         1 UNK         0.0900 
     70 H70       -80.9183   27.5026  -71.6320 H         1 UNK         0.2959 
     71 H71       -82.9252   28.3773  -73.5333 H         1 UNK         0.1079 
     72 H72       -80.8756   29.0846  -74.8564 H         1 UNK         0.0837 
     73 H73       -79.8667   28.4385  -73.5998 H         1 UNK         0.0837 
     74 H74       -79.9484   31.2865  -70.9510 H         1 UNK         0.0685 
     75 H75       -80.4284   29.6198  -70.7659 H         1 UNK         0.0685 
     76 H76       -78.5980   28.1412  -70.5796 H         1 UNK         0.1434 
     77 H77       -74.9951   28.7421  -72.8195 H         1 UNK         0.1329 
     78 H78       -78.1836   31.5923  -73.0960 H         1 UNK         0.1335 
     79 H79       -76.3263   31.4383  -74.8281 H         1 UNK         0.0680 
     80 H80       -74.9220   30.4640  -74.5136 H         1 UNK         0.0680 
     81 H81       -73.9220   30.7832  -71.8462 H         1 UNK         0.1032 
     82 H82       -73.6550   32.3865  -71.2321 H         1 UNK         0.1032 
     83 H83       -71.9893   32.8124  -73.0851 H         1 UNK         0.0461 
     84 H84       -72.0970   32.0755  -70.1089 H         1 UNK         0.3453 
     85 H85       -70.4671   31.5304  -69.8252 H         1 UNK         0.3453 
     86 H86       -72.0135   31.5090  -74.8476 H         1 UNK         0.2984 
     87 H87       -73.1632   29.3817  -75.9461 H         1 UNK         0.0554 
     88 H88       -71.0578   29.0940  -77.3468 H         1 UNK         0.0847 
     89 H89       -70.1006   29.4559  -75.9115 H         1 UNK         0.0847 
     90 H90       -71.1874   30.6627  -76.5795 H         1 UNK         0.0847 
     91 H91       -73.2085   27.2136  -75.6340 H         1 UNK         0.3141 
     92 H92       -70.7631   24.6904  -75.5919 H         1 UNK         0.0743 
     93 H93       -73.0798   25.1774  -73.6430 H         1 UNK         0.0784 
     94 H94       -72.3619   23.6120  -74.0219 H         1 UNK         0.0784 
     95 H95       -71.4162   24.8382  -73.1919 H         1 UNK         0.0784 
     96 H96       -73.5830   24.6266  -76.0405 H         1 UNK         0.3213 
     97 H97       -73.4513   25.4181  -79.5484 H         1 UNK         0.0855 
     98 H98       -74.1376   22.8579  -78.0083 H         1 UNK         0.0814 
     99 H99       -72.9995   22.9770  -79.3420 H         1 UNK         0.0814 
    100 H100      -74.7074   23.2771  -79.6224 H         1 UNK         0.0814 
    101 H101      -75.6647   24.8579  -77.8483 H         1 UNK         0.3105 
    102 H102      -76.2779   28.2325  -76.7982 H         1 UNK         0.0547 
    103 H103      -77.3831   27.9928  -79.0087 H         1 UNK         0.0837 
    104 H104      -77.7913   26.3209  -78.6562 H         1 UNK         0.0837 
    105 H105      -78.5139   27.6237  -77.7151 H         1 UNK         0.0837 
    106 H106      -77.6642   25.8569  -76.1447 H         1 UNK         0.3020 
    107 H107      -75.6456   24.8719  -73.3624 H         1 UNK         0.1245 
    108 H108      -78.5708   25.0881  -73.2434 H         1 UNK         0.0781 
    109 H109      -77.9432   26.6840  -73.3524 H         1 UNK         0.0781 
    110 H110      -75.2033   26.7780  -71.5551 H         1 UNK         0.0836 
    111 H111      -75.9588   27.1246  -70.0196 H         1 UNK         0.0836 
    112 H112      -77.8838   23.7127  -74.7598 H         1 UNK         0.3022 
    113 H113      -75.9940   21.6099  -76.8905 H         1 UNK         0.0747 
    114 H114      -77.2476   19.8190  -75.7136 H         1 UNK         0.0793 
    115 H115      -75.9242   20.3895  -74.7115 H         1 UNK         0.0793 
    116 H116      -77.5692   20.8969  -74.3543 H         1 UNK         0.0793 
    117 H117      -78.7956   21.8197  -76.3218 H         1 UNK         0.3047 
    118 H118      -79.5097   24.4949  -78.5676 H         1 UNK         0.0822 
    119 H119      -81.0510   22.8164  -79.5344 H         1 UNK         0.0807 
    120 H120      -80.1681   21.5043  -78.7526 H         1 UNK         0.0807 
    121 H121      -79.4023   22.4574  -80.0159 H         1 UNK         0.0807 
    122 H122      -81.2689   22.9462  -77.0072 H         1 UNK         0.2946 
    123 H123      -82.3945   24.1446  -75.3134 H         1 UNK         0.1144 
    124 H124      -80.1497   23.2057  -73.4265 H         1 UNK         0.0793 
    125 H125      -81.0885   22.1684  -74.4906 H         1 UNK         0.0793 
    126 H126      -81.8763   22.9849  -73.1548 H         1 UNK         0.0793 
    127 H127      -81.1199   25.4533  -73.0817 H         1 UNK         0.2896 
@<TRIPOS>BOND
     1    1    2 1    
     2    1   67 1    
     3    1   68 1    
     4    1   69 1    
     5    2    3 2    
     6    2    4 am   BACKBONE|DICT|INTERRES
     7    4    5 1    
     8    4   70 1    
     9    5    6 1    
    10    5   65 1    
    11    5   71 1    
    12    6    7 1    
    13    6   72 1    
    14    6   73 1    
    15    7    8 1    
    16    8    9 1    
    17    8   74 1    
    18    8   75 1    
    19    9   10 ar   
    20    9   14 ar   
    21   10   11 ar   
    22   10   76 1    
    23   11   12 ar   
    24   11   48 1    
    25   12   13 ar   
    26   12   77 1    
    27   13   14 ar   
    28   13   15 1    
    29   14   78 1    
    30   15   16 1    
    31   15   79 1    
    32   15   80 1    
    33   16   17 1    
    34   17   18 1    
    35   17   81 1    
    36   17   82 1    
    37   18   19 1    
    38   18   22 1    
    39   18   83 1    
    40   19   20 am   BACKBONE|DICT|INTERRES
    41   19   21 2    
    42   20   84 1    
    43   20   85 1    
    44   22   23 am   BACKBONE|DICT|INTERRES
    45   22   86 1    
    46   23   24 2    
    47   23   25 1    
    48   25   26 1    
    49   25   27 1    
    50   25   87 1    
    51   26   88 1    
    52   26   89 1    
    53   26   90 1    
    54   27   28 am   BACKBONE|DICT|INTERRES
    55   27   91 1    
    56   28   29 2    
    57   28   30 1    
    58   30   31 1    
    59   30   32 1    
    60   30   92 1    
    61   31   93 1    
    62   31   94 1    
    63   31   95 1    
    64   32   33 am   BACKBONE|DICT|INTERRES
    65   32   96 1    
    66   33   34 2    
    67   33   35 1    
    68   35   36 1    
    69   35   37 1    
    70   35   97 1    
    71   36   98 1    
    72   36   99 1    
    73   36  100 1    
    74   37   38 am   BACKBONE|DICT|INTERRES
    75   37  101 1    
    76   38   39 2    
    77   38   40 1    
    78   40   41 1    
    79   40   42 1    
    80   40  102 1    
    81   41  103 1    
    82   41  104 1    
    83   41  105 1    
    84   42   43 am   BACKBONE|DICT|INTERRES
    85   42  106 1    
    86   43   44 2    
    87   43   45 1    
    88   45   46 1    
    89   45   49 1    
    90   45  107 1    
    91   46   47 1    
    92   46  108 1    
    93   46  109 1    
    94   47   48 1    
    95   48  110 1    
    96   48  111 1    
    97   49   50 am   BACKBONE|DICT|INTERRES
    98   49  112 1    
    99   50   51 2    
   100   50   52 1    
   101   52   53 1    
   102   52   54 1    
   103   52  113 1    
   104   53  114 1    
   105   53  115 1    
   106   53  116 1    
   107   54   55 am   BACKBONE|DICT|INTERRES
   108   54  117 1    
   109   55   56 2    
   110   55   57 1    
   111   57   58 1    
   112   57   59 1    
   113   57  118 1    
   114   58  119 1    
   115   58  120 1    
   116   58  121 1    
   117   59   60 am   BACKBONE|DICT|INTERRES
   118   59  122 1    
   119   60   61 2    
   120   60   62 1    
   121   62   63 1    
   122   62   64 1    
   123   62  123 1    
   124   63  124 1    
   125   63  125 1    
   126   63  126 1    
   127   64   65 am   BACKBONE|DICT|INTERRES
   128   64  127 1    
   129   65   66 2    
@<TRIPOS>SUBSTRUCTURE
     1 UNK         1 GROUP             0       ****    0 ROOT    
