@<TRIPOS>MOLECULE
3R135
127   129    1
SMALL
USER_CHARGES


@<TRIPOS>ATOM
      1 CA        -80.6805   21.4384  -70.1107 C.3       0 UNK        -0.1998 
      2 C         -81.2048   22.7243  -70.7323 C.2       0 UNK         0.4909 
      3 O         -82.4171   22.9411  -70.7609 O.2       0 UNK        -0.5240 
      4 N         -80.3000   23.5823  -71.2193 N.am      1 UNK        -0.4739 
      5 CA        -80.6195   24.8416  -71.9020 C.3       1 UNK         0.0864 
      6 C6        -79.3737   25.7538  -72.0398 C.3       11 UNK        -0.0881 
      7 S7        -78.6312   26.1721  -70.4267 S.3       11 UNK        -0.2682 
      8 C8        -79.2355   27.8677  -70.1632 C.3       11 UNK         0.0289 
      9 C9        -78.4817   28.8788  -71.0150 C.ar      11 UNK        -0.0687 
     10 C10       -79.0443   29.3704  -72.1968 C.ar      11 UNK        -0.0823 
     11 C11       -78.3601   30.3147  -72.9667 C.ar      11 UNK        -0.0830 
     12 C12       -77.1160   30.7835  -72.5367 C.ar      11 UNK        -0.1021 
     13 C13       -76.5367   30.2922  -71.3636 C.ar      11 UNK        -0.0753 
     14 C14       -77.2251   29.3383  -70.6076 C.ar      11 UNK        -0.0933 
     15 C15       -75.1749   30.7956  -70.9055 C.3       11 UNK         0.0166 
     16 S16       -73.8197   29.9367  -71.7655 S.3       11 UNK        -0.2615 
     17 C17       -73.7092   30.8791  -73.3318 C.3       11 UNK        -0.0865 
     18 CA        -72.2633   31.2813  -73.7266 C.3       10 UNK         0.0862 
     19 C         -71.6615   32.3692  -72.7914 C.2       10 UNK         0.5551 
     20 N         -72.1177   33.6083  -72.9176 N.am      10 UNK        -0.7319 
     21 O         -70.8093   32.1046  -71.9447 O.2       10 UNK        -0.5018 
     22 N         -71.4180   30.0923  -73.8686 N.am      10 UNK        -0.4509 
     23 C         -70.2477   30.0320  -74.5146 C.2       10 UNK         0.4899 
     24 O         -69.7340   30.9870  -75.0983 O.2       10 UNK        -0.4839 
     25 CA        -69.5305   28.6664  -74.5299 C.3       9 UNK         0.0222 
     26 CB        -68.3747   28.6584  -73.5159 C.3       9 UNK        -0.1966 
     27 N         -70.4186   27.5277  -74.2590 N.am      9 UNK        -0.4218 
     28 C         -71.4038   27.1164  -75.0701 C.2       9 UNK         0.5020 
     29 O         -71.6452   27.6264  -76.1668 O.2       9 UNK        -0.5274 
     30 CA        -72.2918   25.9844  -74.5217 C.3       8 UNK         0.0270 
     31 CB        -73.2916   26.5419  -73.4926 C.3       8 UNK        -0.1976 
     32 N         -73.0442   25.2986  -75.5720 N.am      8 UNK        -0.4313 
     33 C         -72.5161   24.5346  -76.5370 C.2       8 UNK         0.5041 
     34 O         -71.3204   24.2453  -76.6103 O.2       8 UNK        -0.5577 
     35 CA        -73.4897   23.9903  -77.5951 C.3       7 UNK         0.0284 
     36 CB        -74.1382   22.6834  -77.1096 C.3       7 UNK        -0.1958 
     37 N         -74.5309   24.9626  -77.9412 N.am      7 UNK        -0.4454 
     38 C         -74.3502   26.0013  -78.7695 C.2       7 UNK         0.5089 
     39 O         -73.2995   26.2190  -79.3736 O.2       7 UNK        -0.5125 
     40 CA        -75.5451   26.9479  -78.9873 C.3       6 UNK         0.0408 
     41 CB        -76.3091   26.5594  -80.2631 C.3       6 UNK        -0.1791 
     42 N         -76.4767   26.9678  -77.8571 N.am      6 UNK        -0.4762 
     43 C         -76.2736   27.6547  -76.7203 C.2       6 UNK         0.5007 
     44 O         -75.2847   28.3593  -76.5188 O.2       6 UNK        -0.5032 
     45 CA        -77.3354   27.4908  -75.6045 C.3       5 UNK         0.0783 
     46 C46       -78.5159   28.4817  -75.7861 C.3       11 UNK        -0.0857 
     47 S47       -78.0548   30.2492  -75.7197 S.3       11 UNK        -0.2512 
     48 C48       -78.9643   30.8427  -74.2583 C.3       11 UNK         0.0225 
     49 N         -77.8293   26.1074  -75.5290 N.am      5 UNK        -0.4615 
     50 C         -77.0591   25.0231  -75.3385 C.2       4 UNK         0.5053 
     51 O         -75.8639   25.0887  -75.0574 O.2       4 UNK        -0.5105 
     52 CA        -77.6754   23.6318  -75.5840 C.3       4 UNK         0.0263 
     53 CB        -77.7204   22.7895  -74.2994 C.3       4 UNK        -0.1981 
     54 N         -78.9932   23.6666  -76.2250 N.am      4 UNK        -0.4224 
     55 C         -79.1909   24.0290  -77.5037 C.2       3 UNK         0.4895 
     56 O         -78.2751   24.3494  -78.2628 O.2       3 UNK        -0.5091 
     57 CA        -80.6420   24.1007  -78.0163 C.3       3 UNK         0.0250 
     58 CB        -81.0164   22.8000  -78.7441 C.3       3 UNK        -0.1996 
     59 N         -81.6368   24.3769  -76.9747 N.am      3 UNK        -0.4254 
     60 C         -81.6568   25.4683  -76.1967 C.2       2 UNK         0.5004 
     61 O         -80.8360   26.3816  -76.2862 O.2       2 UNK        -0.5226 
     62 CA        -82.7176   25.5333  -75.0809 C.3       2 UNK         0.0269 
     63 CB        -83.8101   24.4426  -75.1741 C.3       2 UNK        -0.1926 
     64 N         -82.0828   25.5158  -73.7553 N.am      2 UNK        -0.4687 
     65 C         -81.2435   24.5780  -73.2884 C.2       1 UNK         0.5165 
     66 O         -80.9225   23.5693  -73.9246 O.2       1 UNK        -0.5079 
     67 H67       -80.9929   21.3702  -69.0691 H         1 UNK         0.0900 
     68 H68       -81.0784   20.5755  -70.6440 H         1 UNK         0.0900 
     69 H69       -79.5924   21.3843  -70.1428 H         1 UNK         0.0900 
     70 H70       -79.3181   23.3553  -71.1630 H         1 UNK         0.2959 
     71 H71       -81.3638   25.3638  -71.2963 H         1 UNK         0.1079 
     72 H72       -78.6013   25.2728  -72.6394 H         1 UNK         0.0837 
     73 H73       -79.6248   26.6701  -72.5739 H         1 UNK         0.0837 
     74 H74       -80.3075   27.9110  -70.3623 H         1 UNK         0.0685 
     75 H75       -79.1133   28.1221  -69.1093 H         1 UNK         0.0685 
     76 H76       -80.0166   29.0215  -72.5160 H         1 UNK         0.1434 
     77 H77       -76.5975   31.5240  -73.1283 H         1 UNK         0.1329 
     78 H78       -76.7854   28.9535  -69.6974 H         1 UNK         0.1335 
     79 H79       -75.0960   31.8736  -71.0536 H         1 UNK         0.0680 
     80 H80       -75.0600   30.6320  -69.8329 H         1 UNK         0.0680 
     81 H81       -74.1466   30.2648  -74.1214 H         1 UNK         0.1032 
     82 H82       -74.3345   31.7706  -73.2810 H         1 UNK         0.1032 
     83 H83       -72.3205   31.7326  -74.7194 H         1 UNK         0.0461 
     84 H84       -72.8118   33.8436  -73.6097 H         1 UNK         0.3453 
     85 H85       -71.7482   34.3282  -72.3164 H         1 UNK         0.3453 
     86 H86       -71.7436   29.2707  -73.3834 H         1 UNK         0.2984 
     87 H87       -69.1090   28.5312  -75.5282 H         1 UNK         0.0554 
     88 H88       -67.6769   29.4733  -73.7142 H         1 UNK         0.0847 
     89 H89       -67.8059   27.7297  -73.5660 H         1 UNK         0.0847 
     90 H90       -68.7331   28.7810  -72.4929 H         1 UNK         0.0847 
     91 H91       -70.2884   27.0543  -73.3759 H         1 UNK         0.3141 
     92 H92       -71.6516   25.2477  -74.0322 H         1 UNK         0.0743 
     93 H93       -73.9504   27.2898  -73.9373 H         1 UNK         0.0784 
     94 H94       -73.9190   25.7514  -73.0799 H         1 UNK         0.0784 
     95 H95       -72.7798   27.0145  -72.6536 H         1 UNK         0.0784 
     96 H96       -74.0521   25.4287  -75.5575 H         1 UNK         0.3213 
     97 H97       -72.9139   23.7653  -78.4959 H         1 UNK         0.0855 
     98 H98       -74.6528   22.8141  -76.1575 H         1 UNK         0.0814 
     99 H99       -73.3820   21.9117  -76.9609 H         1 UNK         0.0814 
    100 H100      -74.8555   22.2981  -77.8345 H         1 UNK         0.0814 
    101 H101      -75.4236   24.8707  -77.4799 H         1 UNK         0.3105 
    102 H102      -75.1469   27.9551  -79.1283 H         1 UNK         0.0547 
    103 H103      -75.6499   26.5763  -81.1321 H         1 UNK         0.0837 
    104 H104      -76.7292   25.5552  -80.1939 H         1 UNK         0.0837 
    105 H105      -77.1260   27.2523  -80.4642 H         1 UNK         0.0837 
    106 H106      -77.2962   26.3774  -77.9357 H         1 UNK         0.3020 
    107 H107      -76.8437   27.7121  -74.6540 H         1 UNK         0.1245 
    108 H108      -79.2726   28.2885  -75.0244 H         1 UNK         0.0781 
    109 H109      -79.0123   28.3064  -76.7423 H         1 UNK         0.0781 
    110 H110      -80.0167   30.5680  -74.3460 H         1 UNK         0.0836 
    111 H111      -78.9354   31.9332  -74.2455 H         1 UNK         0.0836 
    112 H112      -78.8056   25.9772  -75.7705 H         1 UNK         0.3022 
    113 H113      -77.0033   23.1185  -76.2736 H         1 UNK         0.0747 
    114 H114      -78.0574   21.7737  -74.5060 H         1 UNK         0.0793 
    115 H115      -76.7302   22.7146  -73.8475 H         1 UNK         0.0793 
    116 H116      -78.3854   23.2121  -73.5507 H         1 UNK         0.0793 
    117 H117      -79.7940   23.4634  -75.6336 H         1 UNK         0.3047 
    118 H118      -80.6870   24.9210  -78.7358 H         1 UNK         0.0822 
    119 H119      -82.0038   22.8699  -79.2010 H         1 UNK         0.0807 
    120 H120      -81.0175   21.9444  -78.0675 H         1 UNK         0.0807 
    121 H121      -80.3068   22.5822  -79.5438 H         1 UNK         0.0807 
    122 H122      -82.3268   23.6596  -76.8047 H         1 UNK         0.2946 
    123 H123      -83.2064   26.5032  -75.1886 H         1 UNK         0.1144 
    124 H124      -84.5705   24.5903  -74.4072 H         1 UNK         0.0793 
    125 H125      -83.4093   23.4368  -75.0433 H         1 UNK         0.0793 
    126 H126      -84.3220   24.4768  -76.1369 H         1 UNK         0.0793 
    127 H127      -82.2656   26.3270  -73.1809 H         1 UNK         0.2896 
@<TRIPOS>BOND
     1    1    2 1    
     2    1   67 1    
     3    1   68 1    
     4    1   69 1    
     5    2    3 2    
     6    2    4 am   BACKBONE|DICT|INTERRES
     7    4    5 1    
     8    4   70 1    
     9    5    6 1    
    10    5   65 1    
    11    5   71 1    
    12    6    7 1    
    13    6   72 1    
    14    6   73 1    
    15    7    8 1    
    16    8    9 1    
    17    8   74 1    
    18    8   75 1    
    19    9   10 ar   
    20    9   14 ar   
    21   10   11 ar   
    22   10   76 1    
    23   11   12 ar   
    24   11   48 1    
    25   12   13 ar   
    26   12   77 1    
    27   13   14 ar   
    28   13   15 1    
    29   14   78 1    
    30   15   16 1    
    31   15   79 1    
    32   15   80 1    
    33   16   17 1    
    34   17   18 1    
    35   17   81 1    
    36   17   82 1    
    37   18   19 1    
    38   18   22 1    
    39   18   83 1    
    40   19   20 am   BACKBONE|DICT|INTERRES
    41   19   21 2    
    42   20   84 1    
    43   20   85 1    
    44   22   23 am   BACKBONE|DICT|INTERRES
    45   22   86 1    
    46   23   24 2    
    47   23   25 1    
    48   25   26 1    
    49   25   27 1    
    50   25   87 1    
    51   26   88 1    
    52   26   89 1    
    53   26   90 1    
    54   27   28 am   BACKBONE|DICT|INTERRES
    55   27   91 1    
    56   28   29 2    
    57   28   30 1    
    58   30   31 1    
    59   30   32 1    
    60   30   92 1    
    61   31   93 1    
    62   31   94 1    
    63   31   95 1    
    64   32   33 am   BACKBONE|DICT|INTERRES
    65   32   96 1    
    66   33   34 2    
    67   33   35 1    
    68   35   36 1    
    69   35   37 1    
    70   35   97 1    
    71   36   98 1    
    72   36   99 1    
    73   36  100 1    
    74   37   38 am   BACKBONE|DICT|INTERRES
    75   37  101 1    
    76   38   39 2    
    77   38   40 1    
    78   40   41 1    
    79   40   42 1    
    80   40  102 1    
    81   41  103 1    
    82   41  104 1    
    83   41  105 1    
    84   42   43 am   BACKBONE|DICT|INTERRES
    85   42  106 1    
    86   43   44 2    
    87   43   45 1    
    88   45   46 1    
    89   45   49 1    
    90   45  107 1    
    91   46   47 1    
    92   46  108 1    
    93   46  109 1    
    94   47   48 1    
    95   48  110 1    
    96   48  111 1    
    97   49   50 am   BACKBONE|DICT|INTERRES
    98   49  112 1    
    99   50   51 2    
   100   50   52 1    
   101   52   53 1    
   102   52   54 1    
   103   52  113 1    
   104   53  114 1    
   105   53  115 1    
   106   53  116 1    
   107   54   55 am   BACKBONE|DICT|INTERRES
   108   54  117 1    
   109   55   56 2    
   110   55   57 1    
   111   57   58 1    
   112   57   59 1    
   113   57  118 1    
   114   58  119 1    
   115   58  120 1    
   116   58  121 1    
   117   59   60 am   BACKBONE|DICT|INTERRES
   118   59  122 1    
   119   60   61 2    
   120   60   62 1    
   121   62   63 1    
   122   62   64 1    
   123   62  123 1    
   124   63  124 1    
   125   63  125 1    
   126   63  126 1    
   127   64   65 am   BACKBONE|DICT|INTERRES
   128   64  127 1    
   129   65   66 2    
@<TRIPOS>SUBSTRUCTURE
     1 UNK         1 GROUP             0       ****    0 ROOT    
