@<TRIPOS>MOLECULE
3R135
127   129    1
SMALL
USER_CHARGES


@<TRIPOS>ATOM
      1 CA        -85.8197   26.0014  -72.3584 C.3       0 UNK        -0.1998 
      2 C         -84.9381   26.6603  -73.4086 C.2       0 UNK         0.4909 
      3 O         -85.3709   26.8347  -74.5482 O.2       0 UNK        -0.5240 
      4 N         -83.7064   27.0309  -73.0322 N.am      1 UNK        -0.4739 
      5 CA        -82.7085   27.6483  -73.9177 C.3       1 UNK         0.0864 
      6 C6        -81.5491   28.2741  -73.1010 C.3       11 UNK        -0.0881 
      7 S7        -80.8718   29.7898  -73.8582 S.3       11 UNK        -0.2682 
      8 C8        -80.0337   30.5663  -72.4366 C.3       11 UNK         0.0289 
      9 C9        -78.7220   29.8763  -72.0781 C.ar      11 UNK        -0.0687 
     10 C10       -78.7303   28.6805  -71.3557 C.ar      11 UNK        -0.0823 
     11 C11       -77.5368   28.0433  -71.0103 C.ar      11 UNK        -0.0830 
     12 C12       -76.3168   28.6328  -71.3579 C.ar      11 UNK        -0.1021 
     13 C13       -76.2915   29.8504  -72.0470 C.ar      11 UNK        -0.0753 
     14 C14       -77.4964   30.4556  -72.4226 C.ar      11 UNK        -0.0933 
     15 C15       -74.9703   30.5534  -72.3240 C.3       11 UNK         0.0166 
     16 S16       -74.3249   30.2083  -73.9898 S.3       11 UNK        -0.2615 
     17 C17       -73.0163   31.4806  -74.1069 C.3       11 UNK        -0.0865 
     18 CA        -71.5655   30.9498  -73.9658 C.3       10 UNK         0.0862 
     19 C         -71.2646   30.3613  -72.5543 C.2       10 UNK         0.5551 
     20 N         -70.8183   29.1173  -72.4234 N.am      10 UNK        -0.7319 
     21 O         -71.4240   31.0599  -71.5562 O.2       10 UNK        -0.5018 
     22 N         -71.1822   30.0890  -75.0954 N.am      10 UNK        -0.4509 
     23 C         -69.9222   29.9272  -75.5225 C.2       10 UNK         0.4899 
     24 O         -68.9665   30.5597  -75.0690 O.2       10 UNK        -0.4839 
     25 CA        -69.6858   28.8916  -76.6433 C.3       9 UNK         0.0222 
     26 CB        -68.2206   28.4091  -76.6962 C.3       9 UNK        -0.1966 
     27 N         -70.5904   27.7345  -76.6081 N.am      9 UNK        -0.4218 
     28 C         -70.8159   26.8949  -75.5872 C.2       9 UNK         0.5020 
     29 O         -70.3269   27.0336  -74.4642 O.2       9 UNK        -0.5274 
     30 CA        -71.7605   25.7129  -75.8798 C.3       8 UNK         0.0270 
     31 CB        -72.0325   24.8463  -74.6359 C.3       8 UNK        -0.1976 
     32 N         -73.0355   26.1537  -76.4585 N.am      8 UNK        -0.4313 
     33 C         -73.2264   26.4480  -77.7546 C.2       8 UNK         0.5041 
     34 O         -72.3081   26.4468  -78.5764 O.2       8 UNK        -0.5577 
     35 CA        -74.6405   26.8251  -78.2298 C.3       7 UNK         0.0284 
     36 CB        -75.1065   25.8952  -79.3642 C.3       7 UNK        -0.1958 
     37 N         -75.6159   26.7863  -77.1381 N.am      7 UNK        -0.4454 
     38 C         -76.1403   27.8756  -76.5592 C.2       7 UNK         0.5089 
     39 O         -75.9306   29.0228  -76.9541 O.2       7 UNK        -0.5125 
     40 CA        -77.0543   27.6689  -75.3375 C.3       6 UNK         0.0408 
     41 CB        -78.5244   27.8278  -75.7440 C.3       6 UNK        -0.1791 
     42 N         -76.8735   26.3933  -74.6327 N.am      6 UNK        -0.4762 
     43 C         -75.7534   26.0535  -73.9737 C.2       6 UNK         0.5007 
     44 O         -74.7255   26.7276  -74.0118 O.2       6 UNK        -0.5032 
     45 CA        -75.7231   24.7251  -73.1974 C.3       5 UNK         0.0783 
     46 C46       -76.0569   24.8784  -71.6947 C.3       11 UNK        -0.0857 
     47 S47       -77.7939   25.2994  -71.3223 S.3       11 UNK        -0.2512 
     48 C48       -77.5877   26.7404  -70.2268 C.3       11 UNK         0.0225 
     49 N         -76.5089   23.6909  -73.8713 N.am      5 UNK        -0.4615 
     50 C         -76.0235   22.4857  -74.1976 C.2       4 UNK         0.5053 
     51 O         -74.9446   22.0490  -73.7950 O.2       4 UNK        -0.5105 
     52 CA        -76.8492   21.6260  -75.1746 C.3       4 UNK         0.0263 
     53 CB        -77.7236   20.6281  -74.3982 C.3       4 UNK        -0.1981 
     54 N         -77.6984   22.3901  -76.0943 N.am      4 UNK        -0.4224 
     55 C         -77.3119   23.3994  -76.8901 C.2       3 UNK         0.4895 
     56 O         -76.1508   23.7936  -76.9931 O.2       3 UNK        -0.5091 
     57 CA        -78.4174   24.1486  -77.6541 C.3       3 UNK         0.0250 
     58 CB        -78.4914   23.6525  -79.1066 C.3       3 UNK        -0.1996 
     59 N         -79.7528   24.0722  -77.0449 N.am      3 UNK        -0.4254 
     60 C         -80.0748   24.4410  -75.7957 C.2       2 UNK         0.5004 
     61 O         -79.2566   24.8263  -74.9547 O.2       2 UNK        -0.5226 
     62 CA        -81.5520   24.2807  -75.4057 C.3       2 UNK         0.0269 
     63 CB        -81.7597   22.9554  -74.6548 C.3       2 UNK        -0.1926 
     64 N         -82.0247   25.3820  -74.5671 N.am      2 UNK        -0.4687 
     65 C         -82.1805   26.6512  -74.9738 C.2       1 UNK         0.5165 
     66 O         -81.9613   27.0326  -76.1245 O.2       1 UNK        -0.5079 
     67 H67       -85.3160   25.9187  -71.3955 H         1 UNK         0.0900 
     68 H68       -86.1013   24.9993  -72.6807 H         1 UNK         0.0900 
     69 H69       -86.7306   26.5821  -72.2154 H         1 UNK         0.0900 
     70 H70       -83.4135   26.8680  -72.0792 H         1 UNK         0.2959 
     71 H71       -83.2231   28.4451  -74.4603 H         1 UNK         0.1079 
     72 H72       -80.7441   27.5539  -72.9427 H         1 UNK         0.0837 
     73 H73       -81.9036   28.5500  -72.1065 H         1 UNK         0.0837 
     74 H74       -80.6994   30.5735  -71.5723 H         1 UNK         0.0685 
     75 H75       -79.8489   31.6138  -72.6795 H         1 UNK         0.0685 
     76 H76       -79.6692   28.2403  -71.0535 H         1 UNK         0.1434 
     77 H77       -75.3874   28.1584  -71.0742 H         1 UNK         0.1329 
     78 H78       -77.4773   31.3945  -72.9590 H         1 UNK         0.1335 
     79 H79       -74.2245   30.2583  -71.5844 H         1 UNK         0.0680 
     80 H80       -75.1105   31.6286  -72.2026 H         1 UNK         0.0680 
     81 H81       -73.1247   31.9751  -75.0733 H         1 UNK         0.1032 
     82 H82       -73.1956   32.2659  -73.3706 H         1 UNK         0.1032 
     83 H83       -70.9314   31.8367  -74.0264 H         1 UNK         0.0461 
     84 H84       -70.6235   28.7609  -71.5021 H         1 UNK         0.3453 
     85 H85       -70.6747   28.5205  -73.2323 H         1 UNK         0.3453 
     86 H86       -71.9155   29.5175  -75.4885 H         1 UNK         0.2984 
     87 H87       -69.8962   29.4105  -77.5794 H         1 UNK         0.0554 
     88 H88       -68.0632   27.7041  -77.5124 H         1 UNK         0.0847 
     89 H89       -67.9259   27.9184  -75.7677 H         1 UNK         0.0847 
     90 H90       -67.5353   29.2425  -76.8565 H         1 UNK         0.0847 
     91 H91       -71.0638   27.5102  -77.4804 H         1 UNK         0.3141 
     92 H92       -71.2519   25.0764  -76.6073 H         1 UNK         0.0743 
     93 H93       -71.1092   24.3970  -74.2682 H         1 UNK         0.0784 
     94 H94       -72.4505   25.4329  -73.8177 H         1 UNK         0.0784 
     95 H95       -72.7218   24.0313  -74.8587 H         1 UNK         0.0784 
     96 H96       -73.7963   26.2979  -75.8028 H         1 UNK         0.3213 
     97 H97       -74.5705   27.8337  -78.6422 H         1 UNK         0.0855 
     98 H98       -75.0621   24.8454  -79.0757 H         1 UNK         0.0814 
     99 H99       -74.4731   26.0113  -80.2445 H         1 UNK         0.0814 
    100 H100      -76.1284   26.1193  -79.6700 H         1 UNK         0.0814 
    101 H101      -75.8471   25.8670  -76.7759 H         1 UNK         0.3105 
    102 H102      -76.8227   28.4611  -74.6232 H         1 UNK         0.0547 
    103 H103      -79.1849   27.6473  -74.8979 H         1 UNK         0.0837 
    104 H104      -78.7225   28.8390  -76.1013 H         1 UNK         0.0837 
    105 H105      -78.8084   27.1409  -76.5399 H         1 UNK         0.0837 
    106 H106      -77.6989   25.8019  -74.5748 H         1 UNK         0.3020 
    107 H107      -74.6721   24.4302  -73.2339 H         1 UNK         0.1245 
    108 H108      -75.3892   25.6158  -71.2464 H         1 UNK         0.0781 
    109 H109      -75.8340   23.9409  -71.1831 H         1 UNK         0.0781 
    110 H110      -76.6989   26.6253  -69.6047 H         1 UNK         0.0836 
    111 H111      -78.4293   26.7677  -69.5329 H         1 UNK         0.0836 
    112 H112      -77.4198   23.9641  -74.2206 H         1 UNK         0.3022 
    113 H113      -76.1408   21.0630  -75.7855 H         1 UNK         0.0747 
    114 H114      -78.2353   19.9391  -75.0705 H         1 UNK         0.0793 
    115 H115      -77.1190   20.0249  -73.7191 H         1 UNK         0.0793 
    116 H116      -78.4787   21.1371  -73.7973 H         1 UNK         0.0793 
    117 H117      -78.6809   22.1607  -76.0851 H         1 UNK         0.3047 
    118 H118      -78.1303   25.2007  -77.6738 H         1 UNK         0.0822 
    119 H119      -77.5163   23.7162  -79.5922 H         1 UNK         0.0807 
    120 H120      -79.1828   24.2536  -79.6975 H         1 UNK         0.0807 
    121 H121      -78.8153   22.6125  -79.1627 H         1 UNK         0.0807 
    122 H122      -80.4917   23.7453  -77.6514 H         1 UNK         0.2946 
    123 H123      -82.1600   24.2697  -76.3133 H         1 UNK         0.1144 
    124 H124      -81.4548   22.1052  -75.2664 H         1 UNK         0.0793 
    125 H125      -82.8080   22.8053  -74.3958 H         1 UNK         0.0793 
    126 H126      -81.1770   22.9190  -73.7329 H         1 UNK         0.0793 
    127 H127      -82.2163   25.1645  -73.6006 H         1 UNK         0.2896 
@<TRIPOS>BOND
     1    1    2 1    
     2    1   67 1    
     3    1   68 1    
     4    1   69 1    
     5    2    3 2    
     6    2    4 am   BACKBONE|DICT|INTERRES
     7    4    5 1    
     8    4   70 1    
     9    5    6 1    
    10    5   65 1    
    11    5   71 1    
    12    6    7 1    
    13    6   72 1    
    14    6   73 1    
    15    7    8 1    
    16    8    9 1    
    17    8   74 1    
    18    8   75 1    
    19    9   10 ar   
    20    9   14 ar   
    21   10   11 ar   
    22   10   76 1    
    23   11   12 ar   
    24   11   48 1    
    25   12   13 ar   
    26   12   77 1    
    27   13   14 ar   
    28   13   15 1    
    29   14   78 1    
    30   15   16 1    
    31   15   79 1    
    32   15   80 1    
    33   16   17 1    
    34   17   18 1    
    35   17   81 1    
    36   17   82 1    
    37   18   19 1    
    38   18   22 1    
    39   18   83 1    
    40   19   20 am   BACKBONE|DICT|INTERRES
    41   19   21 2    
    42   20   84 1    
    43   20   85 1    
    44   22   23 am   BACKBONE|DICT|INTERRES
    45   22   86 1    
    46   23   24 2    
    47   23   25 1    
    48   25   26 1    
    49   25   27 1    
    50   25   87 1    
    51   26   88 1    
    52   26   89 1    
    53   26   90 1    
    54   27   28 am   BACKBONE|DICT|INTERRES
    55   27   91 1    
    56   28   29 2    
    57   28   30 1    
    58   30   31 1    
    59   30   32 1    
    60   30   92 1    
    61   31   93 1    
    62   31   94 1    
    63   31   95 1    
    64   32   33 am   BACKBONE|DICT|INTERRES
    65   32   96 1    
    66   33   34 2    
    67   33   35 1    
    68   35   36 1    
    69   35   37 1    
    70   35   97 1    
    71   36   98 1    
    72   36   99 1    
    73   36  100 1    
    74   37   38 am   BACKBONE|DICT|INTERRES
    75   37  101 1    
    76   38   39 2    
    77   38   40 1    
    78   40   41 1    
    79   40   42 1    
    80   40  102 1    
    81   41  103 1    
    82   41  104 1    
    83   41  105 1    
    84   42   43 am   BACKBONE|DICT|INTERRES
    85   42  106 1    
    86   43   44 2    
    87   43   45 1    
    88   45   46 1    
    89   45   49 1    
    90   45  107 1    
    91   46   47 1    
    92   46  108 1    
    93   46  109 1    
    94   47   48 1    
    95   48  110 1    
    96   48  111 1    
    97   49   50 am   BACKBONE|DICT|INTERRES
    98   49  112 1    
    99   50   51 2    
   100   50   52 1    
   101   52   53 1    
   102   52   54 1    
   103   52  113 1    
   104   53  114 1    
   105   53  115 1    
   106   53  116 1    
   107   54   55 am   BACKBONE|DICT|INTERRES
   108   54  117 1    
   109   55   56 2    
   110   55   57 1    
   111   57   58 1    
   112   57   59 1    
   113   57  118 1    
   114   58  119 1    
   115   58  120 1    
   116   58  121 1    
   117   59   60 am   BACKBONE|DICT|INTERRES
   118   59  122 1    
   119   60   61 2    
   120   60   62 1    
   121   62   63 1    
   122   62   64 1    
   123   62  123 1    
   124   63  124 1    
   125   63  125 1    
   126   63  126 1    
   127   64   65 am   BACKBONE|DICT|INTERRES
   128   64  127 1    
   129   65   66 2    
@<TRIPOS>SUBSTRUCTURE
     1 UNK         1 GROUP             0       ****    0 ROOT    
