@<TRIPOS>MOLECULE
3R135
127   129    1
SMALL
USER_CHARGES


@<TRIPOS>ATOM
      1 CA        -82.7412   24.6604  -69.2569 C.3       0 UNK        -0.1998 
      2 C         -82.7980   25.1644  -70.6912 C.2       0 UNK         0.4909 
      3 O         -83.6233   24.6924  -71.4744 O.2       0 UNK        -0.5240 
      4 N         -81.9346   26.1269  -71.0371 N.am      1 UNK        -0.4739 
      5 CA        -81.7780   26.6768  -72.3871 C.3       1 UNK         0.0864 
      6 C6        -81.0471   28.0465  -72.3818 C.3       11 UNK        -0.0881 
      7 S7        -79.5743   28.1277  -71.3016 S.3       11 UNK        -0.2682 
      8 C8        -79.2958   29.9232  -71.1901 C.3       11 UNK         0.0289 
      9 C9        -78.1941   30.3670  -72.1390 C.ar      11 UNK        -0.0687 
     10 C10       -78.4717   30.5905  -73.4904 C.ar      11 UNK        -0.0823 
     11 C11       -77.4511   30.9558  -74.3784 C.ar      11 UNK        -0.0830 
     12 C12       -76.1582   31.1512  -73.8814 C.ar      11 UNK        -0.1021 
     13 C13       -75.8735   30.9563  -72.5272 C.ar      11 UNK        -0.0753 
     14 C14       -76.8931   30.5510  -71.6627 C.ar      11 UNK        -0.0933 
     15 C15       -74.4680   31.2032  -71.9988 C.3       11 UNK         0.0166 
     16 S16       -73.3131   29.8844  -72.4802 S.3       11 UNK        -0.2615 
     17 C17       -73.8870   28.4970  -71.4403 C.3       11 UNK        -0.0865 
     18 CA        -72.9100   27.2923  -71.4922 C.3       10 UNK         0.0862 
     19 C         -73.3091   26.1799  -70.4837 C.2       10 UNK         0.5551 
     20 N         -73.1030   26.4182  -69.1955 N.am      10 UNK        -0.7319 
     21 O         -73.8195   25.1210  -70.8435 O.2       10 UNK        -0.5018 
     22 N         -72.7651   26.7994  -72.8661 N.am      10 UNK        -0.4509 
     23 C         -71.7650   26.0396  -73.3244 C.2       10 UNK         0.4899 
     24 O         -70.8417   25.6188  -72.6260 O.2       10 UNK        -0.4839 
     25 CA        -71.7711   25.7261  -74.8332 C.3       9 UNK         0.0222 
     26 CB        -72.4734   24.3870  -75.1027 C.3       9 UNK        -0.1966 
     27 N         -72.3986   26.7725  -75.6481 N.am      9 UNK        -0.4218 
     28 C         -71.9539   28.0336  -75.7616 C.2       9 UNK         0.5020 
     29 O         -70.9154   28.4434  -75.2376 O.2       9 UNK        -0.5274 
     30 CA        -72.8140   28.9820  -76.6220 C.3       8 UNK         0.0270 
     31 CB        -72.1862   30.3798  -76.8016 C.3       8 UNK        -0.1976 
     32 N         -73.1686   28.4016  -77.9229 N.am      8 UNK        -0.4313 
     33 C         -72.3347   27.9053  -78.8531 C.2       8 UNK         0.5041 
     34 O         -71.1065   27.9657  -78.7726 O.2       8 UNK        -0.5577 
     35 CA        -72.9702   27.2281  -80.0892 C.3       7 UNK         0.0284 
     36 CB        -72.1169   26.0528  -80.6135 C.3       7 UNK        -0.1958 
     37 N         -74.3657   26.8057  -79.9002 N.am      7 UNK        -0.4454 
     38 C         -74.8377   25.9344  -78.9965 C.2       7 UNK         0.5089 
     39 O         -74.1409   25.3253  -78.1831 O.2       7 UNK        -0.5125 
     40 CA        -76.3686   25.7850  -78.9523 C.3       6 UNK         0.0408 
     41 CB        -76.7821   24.3085  -79.0601 C.3       6 UNK        -0.1791 
     42 N         -76.9406   26.3553  -77.7304 N.am      6 UNK        -0.4762 
     43 C         -76.7403   27.5953  -77.2565 C.2       6 UNK         0.5007 
     44 O         -76.0556   28.4489  -77.8227 O.2       6 UNK        -0.5032 
     45 CA        -77.3941   27.9284  -75.9063 C.3       5 UNK         0.0783 
     46 C46       -78.8470   28.4393  -76.0858 C.3       11 UNK        -0.0857 
     47 S47       -79.0920   30.1858  -76.5816 S.3       11 UNK        -0.2512 
     48 C48       -77.6910   31.1338  -75.8795 C.3       11 UNK         0.0225 
     49 N         -77.3548   26.7774  -75.0042 N.am      5 UNK        -0.4615 
     50 C         -76.2903   26.4155  -74.2782 C.2       4 UNK         0.5053 
     51 O         -75.2218   27.0255  -74.2884 O.2       4 UNK        -0.5105 
     52 CA        -76.4374   25.1582  -73.4026 C.3       4 UNK         0.0263 
     53 CB        -76.9282   25.5280  -71.9963 C.3       4 UNK        -0.1981 
     54 N         -77.3548   24.1774  -73.9867 N.am      4 UNK        -0.4224 
     55 C         -77.0360   23.3854  -75.0204 C.2       3 UNK         0.4895 
     56 O         -75.9079   23.3191  -75.5055 O.2       3 UNK        -0.5091 
     57 CA        -78.1564   22.5300  -75.6393 C.3       3 UNK         0.0250 
     58 CB        -78.0993   21.0951  -75.0910 C.3       3 UNK        -0.1996 
     59 N         -79.5109   23.0600  -75.4558 N.am      3 UNK        -0.4254 
     60 C         -79.9553   24.2515  -75.8805 C.2       2 UNK         0.5004 
     61 O         -79.2460   25.0816  -76.4488 O.2       2 UNK        -0.5226 
     62 CA        -81.4352   24.5871  -75.6181 C.3       2 UNK         0.0269 
     63 CB        -82.3001   23.3514  -75.2783 C.3       2 UNK        -0.1926 
     64 N         -81.6344   25.6216  -74.5929 N.am      2 UNK        -0.4687 
     65 C         -81.1424   25.6409  -73.3434 C.2       1 UNK         0.5165 
     66 O         -80.2664   24.8736  -72.9326 O.2       1 UNK        -0.5079 
     67 H67       -81.9755   25.1735  -68.6752 H         1 UNK         0.0900 
     68 H68       -83.7014   24.8157  -68.7658 H         1 UNK         0.0900 
     69 H69       -82.5191   23.5937  -69.2433 H         1 UNK         0.0900 
     70 H70       -81.2544   26.4581  -70.3670 H         1 UNK         0.2959 
     71 H71       -82.7881   26.8629  -72.7605 H         1 UNK         0.1079 
     72 H72       -80.7777   28.3550  -73.3911 H         1 UNK         0.0837 
     73 H73       -81.7505   28.8024  -72.0293 H         1 UNK         0.0837 
     74 H74       -80.2152   30.4724  -71.3971 H         1 UNK         0.0685 
     75 H75       -79.0254   30.1681  -70.1618 H         1 UNK         0.0685 
     76 H76       -79.4820   30.4539  -73.8479 H         1 UNK         0.1434 
     77 H77       -75.3618   31.4475  -74.5511 H         1 UNK         0.1329 
     78 H78       -76.6758   30.3850  -70.6164 H         1 UNK         0.1335 
     79 H79       -74.0995   32.1510  -72.3941 H         1 UNK         0.0680 
     80 H80       -74.4703   31.3079  -70.9127 H         1 UNK         0.0680 
     81 H81       -73.9984   28.8593  -70.4169 H         1 UNK         0.1032 
     82 H82       -74.8832   28.2018  -71.7734 H         1 UNK         0.1032 
     83 H83       -71.9261   27.6511  -71.1826 H         1 UNK         0.0461 
     84 H84       -72.6796   27.2778  -68.8825 H         1 UNK         0.3453 
     85 H85       -73.3610   25.7139  -68.5222 H         1 UNK         0.3453 
     86 H86       -73.5222   27.0417  -73.5001 H         1 UNK         0.2984 
     87 H87       -70.7318   25.6379  -75.1559 H         1 UNK         0.0554 
     88 H88       -72.0147   23.5805  -74.5292 H         1 UNK         0.0847 
     89 H89       -72.4159   24.1112  -76.1560 H         1 UNK         0.0847 
     90 H90       -73.5273   24.4255  -74.8269 H         1 UNK         0.0847 
     91 H91       -73.2484   26.5160  -76.1337 H         1 UNK         0.3141 
     92 H92       -73.7517   29.1120  -76.0783 H         1 UNK         0.0743 
     93 H93       -71.2275   30.3288  -77.3187 H         1 UNK         0.0784 
     94 H94       -72.8416   31.0381  -77.3716 H         1 UNK         0.0784 
     95 H95       -72.0117   30.8543  -75.8350 H         1 UNK         0.0784 
     96 H96       -74.1692   28.3184  -78.0905 H         1 UNK         0.3213 
     97 H97       -72.9891   27.9930  -80.8671 H         1 UNK         0.0855 
     98 H98       -71.9899   25.2774  -79.8572 H         1 UNK         0.0814 
     99 H99       -71.1205   26.3886  -80.9032 H         1 UNK         0.0814 
    100 H100      -72.5690   25.5939  -81.4927 H         1 UNK         0.0814 
    101 H101      -75.0406   27.2838  -80.4823 H         1 UNK         0.3105 
    102 H102      -76.8055   26.3211  -79.7970 H         1 UNK         0.0547 
    103 H103      -76.4148   23.8679  -79.9877 H         1 UNK         0.0837 
    104 H104      -76.3771   23.7178  -78.2377 H         1 UNK         0.0837 
    105 H105      -77.8664   24.1955  -79.0525 H         1 UNK         0.0837 
    106 H106      -77.5642   25.7515  -77.2026 H         1 UNK         0.3020 
    107 H107      -76.7793   28.6985  -75.4462 H         1 UNK         0.1245 
    108 H108      -79.3758   28.3283  -75.1409 H         1 UNK         0.0781 
    109 H109      -79.3980   27.8075  -76.7854 H         1 UNK         0.0781 
    110 H110      -77.8672   32.1927  -76.0724 H         1 UNK         0.0836 
    111 H111      -76.7902   30.8733  -76.4379 H         1 UNK         0.0836 
    112 H112      -78.1664   26.1729  -75.0195 H         1 UNK         0.3022 
    113 H113      -75.4478   24.7067  -73.3042 H         1 UNK         0.0747 
    114 H114      -76.8880   24.6690  -71.3266 H         1 UNK         0.0793 
    115 H115      -76.3130   26.3111  -71.5538 H         1 UNK         0.0793 
    116 H116      -77.9544   25.8900  -72.0135 H         1 UNK         0.0793 
    117 H117      -78.3094   24.1790  -73.6428 H         1 UNK         0.3047 
    118 H118      -77.9704   22.4907  -76.7144 H         1 UNK         0.0822 
    119 H119      -78.8142   20.4463  -75.5975 H         1 UNK         0.0807 
    120 H120      -78.3130   21.0632  -74.0218 H         1 UNK         0.0807 
    121 H121      -77.1098   20.6596  -75.2386 H         1 UNK         0.0807 
    122 H122      -80.1637   22.4628  -74.9693 H         1 UNK         0.2946 
    123 H123      -81.8104   25.0005  -76.5561 H         1 UNK         0.1144 
    124 H124      -83.3570   23.6165  -75.2412 H         1 UNK         0.0793 
    125 H125      -82.0418   22.9182  -74.3111 H         1 UNK         0.0793 
    126 H126      -82.1974   22.5723  -76.0352 H         1 UNK         0.0793 
    127 H127      -82.3072   26.3333  -74.8426 H         1 UNK         0.2896 
@<TRIPOS>BOND
     1    1    2 1    
     2    1   67 1    
     3    1   68 1    
     4    1   69 1    
     5    2    3 2    
     6    2    4 am   BACKBONE|DICT|INTERRES
     7    4    5 1    
     8    4   70 1    
     9    5    6 1    
    10    5   65 1    
    11    5   71 1    
    12    6    7 1    
    13    6   72 1    
    14    6   73 1    
    15    7    8 1    
    16    8    9 1    
    17    8   74 1    
    18    8   75 1    
    19    9   10 ar   
    20    9   14 ar   
    21   10   11 ar   
    22   10   76 1    
    23   11   12 ar   
    24   11   48 1    
    25   12   13 ar   
    26   12   77 1    
    27   13   14 ar   
    28   13   15 1    
    29   14   78 1    
    30   15   16 1    
    31   15   79 1    
    32   15   80 1    
    33   16   17 1    
    34   17   18 1    
    35   17   81 1    
    36   17   82 1    
    37   18   19 1    
    38   18   22 1    
    39   18   83 1    
    40   19   20 am   BACKBONE|DICT|INTERRES
    41   19   21 2    
    42   20   84 1    
    43   20   85 1    
    44   22   23 am   BACKBONE|DICT|INTERRES
    45   22   86 1    
    46   23   24 2    
    47   23   25 1    
    48   25   26 1    
    49   25   27 1    
    50   25   87 1    
    51   26   88 1    
    52   26   89 1    
    53   26   90 1    
    54   27   28 am   BACKBONE|DICT|INTERRES
    55   27   91 1    
    56   28   29 2    
    57   28   30 1    
    58   30   31 1    
    59   30   32 1    
    60   30   92 1    
    61   31   93 1    
    62   31   94 1    
    63   31   95 1    
    64   32   33 am   BACKBONE|DICT|INTERRES
    65   32   96 1    
    66   33   34 2    
    67   33   35 1    
    68   35   36 1    
    69   35   37 1    
    70   35   97 1    
    71   36   98 1    
    72   36   99 1    
    73   36  100 1    
    74   37   38 am   BACKBONE|DICT|INTERRES
    75   37  101 1    
    76   38   39 2    
    77   38   40 1    
    78   40   41 1    
    79   40   42 1    
    80   40  102 1    
    81   41  103 1    
    82   41  104 1    
    83   41  105 1    
    84   42   43 am   BACKBONE|DICT|INTERRES
    85   42  106 1    
    86   43   44 2    
    87   43   45 1    
    88   45   46 1    
    89   45   49 1    
    90   45  107 1    
    91   46   47 1    
    92   46  108 1    
    93   46  109 1    
    94   47   48 1    
    95   48  110 1    
    96   48  111 1    
    97   49   50 am   BACKBONE|DICT|INTERRES
    98   49  112 1    
    99   50   51 2    
   100   50   52 1    
   101   52   53 1    
   102   52   54 1    
   103   52  113 1    
   104   53  114 1    
   105   53  115 1    
   106   53  116 1    
   107   54   55 am   BACKBONE|DICT|INTERRES
   108   54  117 1    
   109   55   56 2    
   110   55   57 1    
   111   57   58 1    
   112   57   59 1    
   113   57  118 1    
   114   58  119 1    
   115   58  120 1    
   116   58  121 1    
   117   59   60 am   BACKBONE|DICT|INTERRES
   118   59  122 1    
   119   60   61 2    
   120   60   62 1    
   121   62   63 1    
   122   62   64 1    
   123   62  123 1    
   124   63  124 1    
   125   63  125 1    
   126   63  126 1    
   127   64   65 am   BACKBONE|DICT|INTERRES
   128   64  127 1    
   129   65   66 2    
@<TRIPOS>SUBSTRUCTURE
     1 UNK         1 GROUP             0       ****    0 ROOT    
