@<TRIPOS>MOLECULE
3R135
127   129    1
SMALL
USER_CHARGES


@<TRIPOS>ATOM
      1 CA        -81.4068   26.5774  -69.6335 C.3       0 UNK        -0.1998 
      2 C         -82.1934   26.2517  -70.8947 C.2       0 UNK         0.4909 
      3 O         -83.0888   25.4071  -70.8588 O.2       0 UNK        -0.5240 
      4 N         -81.8730   26.9259  -72.0059 N.am      1 UNK        -0.4739 
      5 CA        -82.4562   26.6972  -73.3300 C.3       1 UNK         0.0864 
      6 C6        -82.1530   27.8738  -74.2983 C.3       11 UNK        -0.0881 
      7 S7        -80.3710   28.1721  -74.5901 S.3       11 UNK        -0.2682 
      8 C8        -80.0573   29.6380  -73.5519 C.3       11 UNK         0.0289 
      9 C9        -78.6978   29.5527  -72.8739 C.ar      11 UNK        -0.0687 
     10 C10       -78.4761   28.5843  -71.8936 C.ar      11 UNK        -0.0823 
     11 C11       -77.2399   28.4786  -71.2559 C.ar      11 UNK        -0.0830 
     12 C12       -76.2145   29.3654  -71.5986 C.ar      11 UNK        -0.1021 
     13 C13       -76.4231   30.3550  -72.5680 C.ar      11 UNK        -0.0753 
     14 C14       -77.6703   30.4431  -73.2002 C.ar      11 UNK        -0.0933 
     15 C15       -75.3131   31.3506  -72.8915 C.3       11 UNK         0.0166 
     16 S16       -74.9837   31.4907  -74.6789 S.3       11 UNK        -0.2615 
     17 C17       -73.4191   32.4301  -74.6910 C.3       11 UNK        -0.0865 
     18 CA        -72.2029   31.5610  -75.1116 C.3       10 UNK         0.0862 
     19 C         -70.9299   32.4414  -75.2844 C.2       10 UNK         0.5551 
     20 N         -69.8749   32.2516  -74.5012 N.am      10 UNK        -0.7319 
     21 O         -70.9011   33.3136  -76.1491 O.2       10 UNK        -0.5018 
     22 N         -72.0374   30.3950  -74.2267 N.am      10 UNK        -0.4509 
     23 C         -71.3464   29.2872  -74.5232 C.2       10 UNK         0.4899 
     24 O         -70.7237   29.1335  -75.5750 O.2       10 UNK        -0.4839 
     25 CA        -71.3204   28.1737  -73.4589 C.3       9 UNK         0.0222 
     26 CB        -72.2102   28.4547  -72.2280 C.3       9 UNK        -0.1966 
     27 N         -71.7375   26.9084  -74.0600 N.am      9 UNK        -0.4218 
     28 C         -70.9167   25.9549  -74.5188 C.2       9 UNK         0.5020 
     29 O         -69.6869   26.0120  -74.4582 O.2       9 UNK        -0.5274 
     30 CA        -71.5784   24.7078  -75.1304 C.3       8 UNK         0.0270 
     31 CB        -72.1007   23.7741  -74.0259 C.3       8 UNK        -0.1976 
     32 N         -72.6652   25.0315  -76.0575 N.am      8 UNK        -0.4313 
     33 C         -72.4924   25.5701  -77.2732 C.2       8 UNK         0.5041 
     34 O         -71.3896   25.8129  -77.7654 O.2       8 UNK        -0.5577 
     35 CA        -73.7605   25.8841  -78.0871 C.3       7 UNK         0.0284 
     36 CB        -74.2727   24.6292  -78.8124 C.3       7 UNK        -0.1958 
     37 N         -74.8312   26.4474  -77.2645 N.am      7 UNK        -0.4454 
     38 C         -74.7980   27.6645  -76.7051 C.2       7 UNK         0.5089 
     39 O         -73.9036   28.4853  -76.9042 O.2       7 UNK        -0.5125 
     40 CA        -75.9473   28.0176  -75.7454 C.3       6 UNK         0.0408 
     41 CB        -77.1193   28.6535  -76.5074 C.3       6 UNK        -0.1791 
     42 N         -76.4129   26.8738  -74.9557 N.am      6 UNK        -0.4762 
     43 C         -75.6597   26.2548  -74.0340 C.2       6 UNK         0.5007 
     44 O         -74.5080   26.5918  -73.7634 O.2       6 UNK        -0.5032 
     45 CA        -76.2477   24.9985  -73.3592 C.3       5 UNK         0.0783 
     46 C46       -77.1173   25.3244  -72.1223 C.3       11 UNK        -0.0857 
     47 S47       -76.1076   25.9710  -70.7403 S.3       11 UNK        -0.2512 
     48 C48       -77.0410   27.4280  -70.1709 C.3       11 UNK         0.0225 
     49 N         -76.9443   24.1441  -74.3255 N.am      5 UNK        -0.4615 
     50 C         -76.3111   23.4729  -75.2980 C.2       4 UNK         0.5053 
     51 O         -75.0909   23.4943  -75.4568 O.2       4 UNK        -0.5105 
     52 CA        -77.1784   22.6742  -76.2821 C.3       4 UNK         0.0263 
     53 CB        -77.5632   21.3130  -75.6823 C.3       4 UNK        -0.1981 
     54 N         -78.3887   23.3759  -76.7140 N.am      4 UNK        -0.4224 
     55 C         -78.4373   24.5713  -77.3139 C.2       3 UNK         0.4895 
     56 O         -77.4421   25.2621  -77.5275 O.2       3 UNK        -0.5091 
     57 CA        -79.8146   25.1030  -77.7543 C.3       3 UNK         0.0250 
     58 CB        -80.1108   24.6960  -79.2100 C.3       3 UNK        -0.1996 
     59 N         -80.9438   24.7720  -76.8702 N.am      3 UNK        -0.4254 
     60 C         -81.4682   23.5759  -76.5580 C.2       2 UNK         0.5004 
     61 O         -81.0334   22.5081  -76.9918 O.2       2 UNK        -0.5226 
     62 CA        -82.6746   23.5632  -75.5953 C.3       2 UNK         0.0269 
     63 CB        -82.6549   22.3397  -74.6538 C.3       2 UNK        -0.1926 
     64 N         -82.8577   24.8092  -74.8325 N.am      2 UNK        -0.4687 
     65 C         -82.0225   25.3384  -73.9245 C.2       1 UNK         0.5165 
     66 O         -80.9435   24.8326  -73.6017 O.2       1 UNK        -0.5079 
     67 H67       -80.7102   25.7706  -69.4080 H         1 UNK         0.0900 
     68 H68       -82.0835   26.6901  -68.7869 H         1 UNK         0.0900 
     69 H69       -80.8400   27.5026  -69.7332 H         1 UNK         0.0900 
     70 H70       -81.1189   27.5930  -71.9873 H         1 UNK         0.2959 
     71 H71       -83.5394   26.6536  -73.1936 H         1 UNK         0.1079 
     72 H72       -82.6176   28.7865  -73.9222 H         1 UNK         0.0837 
     73 H73       -82.6265   27.7000  -75.2662 H         1 UNK         0.0837 
     74 H74       -80.1311   30.5328  -74.1717 H         1 UNK         0.0685 
     75 H75       -80.8228   29.7334  -72.7809 H         1 UNK         0.0685 
     76 H76       -79.2671   27.8994  -71.6314 H         1 UNK         0.1434 
     77 H77       -75.2596   29.2901  -71.0969 H         1 UNK         0.1329 
     78 H78       -77.8383   31.2071  -73.9467 H         1 UNK         0.1335 
     79 H79       -75.5918   32.3308  -72.5026 H         1 UNK         0.0680 
     80 H80       -74.3915   31.0646  -72.3833 H         1 UNK         0.0680 
     81 H81       -73.2485   32.8866  -73.7144 H         1 UNK         0.1032 
     82 H82       -73.5494   33.2603  -75.3881 H         1 UNK         0.1032 
     83 H83       -72.4208   31.1675  -76.1067 H         1 UNK         0.0461 
     84 H84       -69.8873   31.5341  -73.7950 H         1 UNK         0.3453 
     85 H85       -69.0562   32.8262  -74.6252 H         1 UNK         0.3453 
     86 H86       -72.5152   30.4409  -73.3410 H         1 UNK         0.2984 
     87 H87       -70.2900   28.0947  -73.1074 H         1 UNK         0.0554 
     88 H88       -72.1726   27.6240  -71.5229 H         1 UNK         0.0847 
     89 H89       -73.2562   28.5971  -72.5031 H         1 UNK         0.0847 
     90 H90       -71.8774   29.3413  -71.6869 H         1 UNK         0.0847 
     91 H91       -72.7442   26.7658  -74.1337 H         1 UNK         0.3141 
     92 H92       -70.8118   24.1673  -75.6898 H         1 UNK         0.0743 
     93 H93       -72.8924   24.2428  -73.4407 H         1 UNK         0.0784 
     94 H94       -72.4979   22.8491  -74.4445 H         1 UNK         0.0784 
     95 H95       -71.3018   23.5011  -73.3353 H         1 UNK         0.0784 
     96 H96       -73.6062   24.7861  -75.7636 H         1 UNK         0.3213 
     97 H97       -73.4939   26.6264  -78.8427 H         1 UNK         0.0855 
     98 H98       -73.5034   24.2166  -79.4663 H         1 UNK         0.0814 
     99 H99       -75.1399   24.8561  -79.4329 H         1 UNK         0.0814 
    100 H100      -74.5602   23.8449  -78.1121 H         1 UNK         0.0814 
    101 H101      -75.6610   25.8765  -77.1240 H         1 UNK         0.3105 
    102 H102      -75.5635   28.7538  -75.0395 H         1 UNK         0.0547 
    103 H103      -76.7772   29.4944  -77.1121 H         1 UNK         0.0837 
    104 H104      -77.6054   27.9442  -77.1771 H         1 UNK         0.0837 
    105 H105      -77.8690   29.0421  -75.8210 H         1 UNK         0.0837 
    106 H106      -77.3330   26.5149  -75.1638 H         1 UNK         0.3020 
    107 H107      -75.3934   24.4186  -73.0007 H         1 UNK         0.1245 
    108 H108      -77.6042   24.4164  -71.7632 H         1 UNK         0.0781 
    109 H109      -77.9249   26.0059  -72.3860 H         1 UNK         0.0781 
    110 H110      -76.5088   27.8760  -69.3307 H         1 UNK         0.0836 
    111 H111      -78.0020   27.0975  -69.7736 H         1 UNK         0.0836 
    112 H112      -77.9512   24.0925  -74.2626 H         1 UNK         0.3022 
    113 H113      -76.5758   22.4945  -77.1745 H         1 UNK         0.0747 
    114 H114      -78.0873   20.6934  -76.4104 H         1 UNK         0.0793 
    115 H115      -76.6773   20.7605  -75.3658 H         1 UNK         0.0793 
    116 H116      -78.2095   21.4232  -74.8107 H         1 UNK         0.0793 
    117 H117      -79.2694   22.8716  -76.6391 H         1 UNK         0.3047 
    118 H118      -79.7382   26.1915  -77.7292 H         1 UNK         0.0822 
    119 H119      -81.0366   25.1465  -79.5671 H         1 UNK         0.0807 
    120 H120      -80.1984   23.6148  -79.3220 H         1 UNK         0.0807 
    121 H121      -79.3125   25.0261  -79.8761 H         1 UNK         0.0807 
    122 H122      -81.3642   25.5698  -76.4154 H         1 UNK         0.2946 
    123 H123      -83.5534   23.4670  -76.2348 H         1 UNK         0.1144 
    124 H124      -82.6842   21.4079  -75.2200 H         1 UNK         0.0793 
    125 H125      -83.5173   22.3374  -73.9875 H         1 UNK         0.0793 
    126 H126      -81.7555   22.3146  -74.0384 H         1 UNK         0.0793 
    127 H127      -83.7101   25.3121  -75.0411 H         1 UNK         0.2896 
@<TRIPOS>BOND
     1    1    2 1    
     2    1   67 1    
     3    1   68 1    
     4    1   69 1    
     5    2    3 2    
     6    2    4 am   BACKBONE|DICT|INTERRES
     7    4    5 1    
     8    4   70 1    
     9    5    6 1    
    10    5   65 1    
    11    5   71 1    
    12    6    7 1    
    13    6   72 1    
    14    6   73 1    
    15    7    8 1    
    16    8    9 1    
    17    8   74 1    
    18    8   75 1    
    19    9   10 ar   
    20    9   14 ar   
    21   10   11 ar   
    22   10   76 1    
    23   11   12 ar   
    24   11   48 1    
    25   12   13 ar   
    26   12   77 1    
    27   13   14 ar   
    28   13   15 1    
    29   14   78 1    
    30   15   16 1    
    31   15   79 1    
    32   15   80 1    
    33   16   17 1    
    34   17   18 1    
    35   17   81 1    
    36   17   82 1    
    37   18   19 1    
    38   18   22 1    
    39   18   83 1    
    40   19   20 am   BACKBONE|DICT|INTERRES
    41   19   21 2    
    42   20   84 1    
    43   20   85 1    
    44   22   23 am   BACKBONE|DICT|INTERRES
    45   22   86 1    
    46   23   24 2    
    47   23   25 1    
    48   25   26 1    
    49   25   27 1    
    50   25   87 1    
    51   26   88 1    
    52   26   89 1    
    53   26   90 1    
    54   27   28 am   BACKBONE|DICT|INTERRES
    55   27   91 1    
    56   28   29 2    
    57   28   30 1    
    58   30   31 1    
    59   30   32 1    
    60   30   92 1    
    61   31   93 1    
    62   31   94 1    
    63   31   95 1    
    64   32   33 am   BACKBONE|DICT|INTERRES
    65   32   96 1    
    66   33   34 2    
    67   33   35 1    
    68   35   36 1    
    69   35   37 1    
    70   35   97 1    
    71   36   98 1    
    72   36   99 1    
    73   36  100 1    
    74   37   38 am   BACKBONE|DICT|INTERRES
    75   37  101 1    
    76   38   39 2    
    77   38   40 1    
    78   40   41 1    
    79   40   42 1    
    80   40  102 1    
    81   41  103 1    
    82   41  104 1    
    83   41  105 1    
    84   42   43 am   BACKBONE|DICT|INTERRES
    85   42  106 1    
    86   43   44 2    
    87   43   45 1    
    88   45   46 1    
    89   45   49 1    
    90   45  107 1    
    91   46   47 1    
    92   46  108 1    
    93   46  109 1    
    94   47   48 1    
    95   48  110 1    
    96   48  111 1    
    97   49   50 am   BACKBONE|DICT|INTERRES
    98   49  112 1    
    99   50   51 2    
   100   50   52 1    
   101   52   53 1    
   102   52   54 1    
   103   52  113 1    
   104   53  114 1    
   105   53  115 1    
   106   53  116 1    
   107   54   55 am   BACKBONE|DICT|INTERRES
   108   54  117 1    
   109   55   56 2    
   110   55   57 1    
   111   57   58 1    
   112   57   59 1    
   113   57  118 1    
   114   58  119 1    
   115   58  120 1    
   116   58  121 1    
   117   59   60 am   BACKBONE|DICT|INTERRES
   118   59  122 1    
   119   60   61 2    
   120   60   62 1    
   121   62   63 1    
   122   62   64 1    
   123   62  123 1    
   124   63  124 1    
   125   63  125 1    
   126   63  126 1    
   127   64   65 am   BACKBONE|DICT|INTERRES
   128   64  127 1    
   129   65   66 2    
@<TRIPOS>SUBSTRUCTURE
     1 UNK         1 GROUP             0       ****    0 ROOT    
