@<TRIPOS>MOLECULE
3R135
127   129    1
SMALL
USER_CHARGES


@<TRIPOS>ATOM
      1 CA        -83.3120   24.9469  -71.0364 C.3       0 UNK        -0.1998 
      2 C         -82.0265   25.7654  -70.9492 C.2       0 UNK         0.4909 
      3 O         -81.1301   25.3984  -70.1938 O.2       0 UNK        -0.5240 
      4 N         -81.8833   26.8791  -71.6820 N.am      1 UNK        -0.4739 
      5 CA        -82.8247   27.4398  -72.6621 C.3       1 UNK         0.0864 
      6 C6        -82.4893   28.9167  -72.9996 C.3       11 UNK        -0.0881 
      7 S7        -80.7683   29.1722  -73.5604 S.3       11 UNK        -0.2682 
      8 C8        -79.9908   29.8339  -72.0534 C.3       11 UNK         0.0289 
      9 C9        -78.5150   29.4777  -72.0268 C.ar      11 UNK        -0.0687 
     10 C10       -78.0964   28.2788  -71.4417 C.ar      11 UNK        -0.0823 
     11 C11       -76.7487   27.9034  -71.4714 C.ar      11 UNK        -0.0830 
     12 C12       -75.8186   28.7636  -72.0649 C.ar      11 UNK        -0.1021 
     13 C13       -76.2176   29.9841  -72.6193 C.ar      11 UNK        -0.0753 
     14 C14       -77.5709   30.3330  -72.6015 C.ar      11 UNK        -0.0933 
     15 C15       -75.1876   30.9331  -73.2182 C.3       11 UNK         0.0166 
     16 S16       -75.3577   31.0618  -75.0239 S.3       11 UNK        -0.2615 
     17 C17       -73.8787   32.0361  -75.4657 C.3       11 UNK        -0.0865 
     18 CA        -72.8081   31.1807  -76.2070 C.3       10 UNK         0.0862 
     19 C         -71.7182   32.0422  -76.9182 C.2       10 UNK         0.5551 
     20 N         -70.5026   31.5408  -77.1017 N.am      10 UNK        -0.7319 
     21 O         -71.9805   33.1661  -77.3404 O.2       10 UNK        -0.5018 
     22 N         -72.2852   30.0702  -75.3848 N.am      10 UNK        -0.4509 
     23 C         -71.5291   30.1998  -74.2860 C.2       10 UNK         0.4899 
     24 O         -71.1808   31.2928  -73.8375 O.2       10 UNK        -0.4839 
     25 CA        -71.0584   28.9351  -73.5457 C.3       9 UNK         0.0222 
     26 CB        -71.4786   28.9668  -72.0620 C.3       9 UNK        -0.1966 
     27 N         -71.4598   27.6521  -74.1450 N.am      9 UNK        -0.4218 
     28 C         -70.7217   26.5348  -74.0245 C.2       9 UNK         0.5020 
     29 O         -69.5922   26.5196  -73.5309 O.2       9 UNK        -0.5274 
     30 CA        -71.3222   25.1921  -74.4765 C.3       8 UNK         0.0270 
     31 CB        -71.8677   24.4197  -73.2631 C.3       8 UNK        -0.1976 
     32 N         -72.3766   25.3238  -75.4810 N.am      8 UNK        -0.4313 
     33 C         -72.1449   25.4082  -76.7995 C.2       8 UNK         0.5041 
     34 O         -71.0149   25.4022  -77.2907 O.2       8 UNK        -0.5577 
     35 CA        -73.3595   25.5064  -77.7460 C.3       7 UNK         0.0284 
     36 CB        -73.6431   24.1381  -78.3875 C.3       7 UNK        -0.1958 
     37 N         -74.5891   26.0047  -77.1232 N.am      7 UNK        -0.4454 
     38 C         -74.7158   27.1960  -76.5256 C.2       7 UNK         0.5089 
     39 O         -73.8017   28.0148  -76.4547 O.2       7 UNK        -0.5125 
     40 CA        -76.0465   27.4863  -75.8128 C.3       6 UNK         0.0408 
     41 CB        -77.0727   28.0813  -76.7861 C.3       6 UNK        -0.1791 
     42 N         -76.6210   26.3246  -75.1300 N.am      6 UNK        -0.4762 
     43 C         -75.9973   25.6077  -74.1816 C.2       6 UNK         0.5007 
     44 O         -74.8264   25.7847  -73.8445 O.2       6 UNK        -0.5032 
     45 CA        -76.8164   24.4795  -73.5345 C.3       5 UNK         0.0783 
     46 C46       -77.9299   25.0432  -72.6119 C.3       11 UNK        -0.0857 
     47 S47       -77.4324   25.1980  -70.8626 S.3       11 UNK        -0.2512 
     48 C48       -76.2542   26.5992  -70.8435 C.3       11 UNK         0.0225 
     49 N         -77.3581   23.6225  -74.5886 N.am      5 UNK        -0.4615 
     50 C         -76.6502   22.6932  -75.2456 C.2       4 UNK         0.5053 
     51 O         -75.5039   22.3645  -74.9410 O.2       4 UNK        -0.5105 
     52 CA        -77.3231   22.0261  -76.4596 C.3       4 UNK         0.0263 
     53 CB        -77.9993   20.7103  -76.0426 C.3       4 UNK        -0.1981 
     54 N         -78.3066   22.8847  -77.1260 N.am      4 UNK        -0.4224 
     55 C         -78.0170   24.0297  -77.7614 C.2       3 UNK         0.4895 
     56 O         -76.8760   24.4665  -77.9025 O.2       3 UNK        -0.5091 
     57 CA        -79.2065   24.8547  -78.2814 C.3       3 UNK         0.0250 
     58 CB        -79.5679   24.4308  -79.7137 C.3       3 UNK        -0.1996 
     59 N         -80.4004   24.7824  -77.4306 N.am      3 UNK        -0.4254 
     60 C         -80.4533   25.1415  -76.1402 C.2       2 UNK         0.5004 
     61 O         -79.4794   25.5368  -75.4913 O.2       2 UNK        -0.5226 
     62 CA        -81.8081   24.9668  -75.4484 C.3       2 UNK         0.0269 
     63 CB        -81.9877   23.5148  -74.9716 C.3       2 UNK        -0.1926 
     64 N         -81.8808   25.8580  -74.2949 N.am      2 UNK        -0.4687 
     65 C         -82.9519   26.5759  -73.9360 C.2       1 UNK         0.5165 
     66 O         -84.0240   26.5523  -74.5419 O.2       1 UNK        -0.5079 
     67 H67       -83.3403   24.2021  -70.2412 H         1 UNK         0.0900 
     68 H68       -83.3696   24.4166  -71.9862 H         1 UNK         0.0900 
     69 H69       -84.1956   25.5736  -70.9251 H         1 UNK         0.0900 
     70 H70       -81.0154   27.3876  -71.6076 H         1 UNK         0.2959 
     71 H71       -83.8148   27.4467  -72.2026 H         1 UNK         0.1079 
     72 H72       -83.1624   29.2963  -73.7711 H         1 UNK         0.0837 
     73 H73       -82.6784   29.5432  -72.1265 H         1 UNK         0.0837 
     74 H74       -80.1266   30.9160  -72.0209 H         1 UNK         0.0685 
     75 H75       -80.4800   29.4351  -71.1636 H         1 UNK         0.0685 
     76 H76       -78.8255   27.6285  -70.9794 H         1 UNK         0.1434 
     77 H77       -74.7765   28.4811  -72.0887 H         1 UNK         0.1329 
     78 H78       -77.8891   31.2653  -73.0476 H         1 UNK         0.1335 
     79 H79       -75.3041   31.9227  -72.7742 H         1 UNK         0.0680 
     80 H80       -74.1779   30.6014  -72.9750 H         1 UNK         0.0680 
     81 H81       -73.4551   32.5122  -74.5804 H         1 UNK         0.1032 
     82 H82       -74.2253   32.8518  -76.1024 H         1 UNK         0.1032 
     83 H83       -73.3220   30.6925  -77.0358 H         1 UNK         0.0461 
     84 H84       -69.8031   32.0946  -77.5705 H         1 UNK         0.3453 
     85 H85       -70.2800   30.6155  -76.7717 H         1 UNK         0.3453 
     86 H86       -72.5814   29.1542  -75.7096 H         1 UNK         0.2984 
     87 H87       -69.9690   29.0041  -73.5784 H         1 UNK         0.0554 
     88 H88       -71.0151   28.1566  -71.4989 H         1 UNK         0.0847 
     89 H89       -72.5572   28.8766  -71.9487 H         1 UNK         0.0847 
     90 H90       -71.1772   29.8986  -71.5815 H         1 UNK         0.0847 
     91 H91       -72.3755   27.5946  -74.5716 H         1 UNK         0.3141 
     92 H92       -70.5088   24.5987  -74.9002 H         1 UNK         0.0743 
     93 H93       -72.6198   24.9928  -72.7203 H         1 UNK         0.0784 
     94 H94       -72.3170   23.4720  -73.5611 H         1 UNK         0.0784 
     95 H95       -71.0675   24.1918  -72.5577 H         1 UNK         0.0784 
     96 H96       -73.3310   25.3679  -75.1351 H         1 UNK         0.3213 
     97 H97       -73.0900   26.2077  -78.5384 H         1 UNK         0.0855 
     98 H98       -72.7489   23.7329  -78.8633 H         1 UNK         0.0814 
     99 H99       -74.4113   24.2128  -79.1573 H         1 UNK         0.0814 
    100 H100      -73.9800   23.4105  -77.6476 H         1 UNK         0.0814 
    101 H101      -75.4089   25.4038  -77.1847 H         1 UNK         0.3105 
    102 H102      -75.8455   28.2256  -75.0375 H         1 UNK         0.0547 
    103 H103      -76.7002   29.0114  -77.2171 H         1 UNK         0.0837 
    104 H104      -77.2841   27.4022  -77.6110 H         1 UNK         0.0837 
    105 H105      -78.0125   28.3108  -76.2829 H         1 UNK         0.0837 
    106 H106      -77.5890   26.1004  -75.3437 H         1 UNK         0.3020 
    107 H107      -76.1324   23.8770  -72.9316 H         1 UNK         0.1245 
    108 H108      -78.7819   24.3612  -72.6088 H         1 UNK         0.0781 
    109 H109      -78.3369   25.9888  -72.9741 H         1 UNK         0.0781 
    110 H110      -75.3287   26.2758  -71.3205 H         1 UNK         0.0836 
    111 H111      -75.9940   26.8048  -69.8046 H         1 UNK         0.0836 
    112 H112      -78.2688   23.8846  -74.9437 H         1 UNK         0.3022 
    113 H113      -76.5374   21.7957  -77.1825 H         1 UNK         0.0747 
    114 H114      -78.4089   20.1833  -76.9046 H         1 UNK         0.0793 
    115 H115      -77.2840   20.0389  -75.5651 H         1 UNK         0.0793 
    116 H116      -78.8109   20.8792  -75.3335 H         1 UNK         0.0793 
    117 H117      -79.2741   22.6032  -77.0663 H         1 UNK         0.3047 
    118 H118      -78.8928   25.8990  -78.3081 H         1 UNK         0.0822 
    119 H119      -80.3397   25.0746  -80.1361 H         1 UNK         0.0807 
    120 H120      -79.9282   23.4020  -79.7538 H         1 UNK         0.0807 
    121 H121      -78.6993   24.4975  -80.3707 H         1 UNK         0.0807 
    122 H122      -81.2451   24.4524  -77.8760 H         1 UNK         0.2946 
    123 H123      -82.5925   25.2166  -76.1671 H         1 UNK         0.1144 
    124 H124      -81.9425   22.8147  -75.8067 H         1 UNK         0.0793 
    125 H125      -82.9550   23.3755  -74.4884 H         1 UNK         0.0793 
    126 H126      -81.2144   23.2258  -74.2582 H         1 UNK         0.0793 
    127 H127      -81.0083   25.9973  -73.8020 H         1 UNK         0.2896 
@<TRIPOS>BOND
     1    1    2 1    
     2    1   67 1    
     3    1   68 1    
     4    1   69 1    
     5    2    3 2    
     6    2    4 am   BACKBONE|DICT|INTERRES
     7    4    5 1    
     8    4   70 1    
     9    5    6 1    
    10    5   65 1    
    11    5   71 1    
    12    6    7 1    
    13    6   72 1    
    14    6   73 1    
    15    7    8 1    
    16    8    9 1    
    17    8   74 1    
    18    8   75 1    
    19    9   10 ar   
    20    9   14 ar   
    21   10   11 ar   
    22   10   76 1    
    23   11   12 ar   
    24   11   48 1    
    25   12   13 ar   
    26   12   77 1    
    27   13   14 ar   
    28   13   15 1    
    29   14   78 1    
    30   15   16 1    
    31   15   79 1    
    32   15   80 1    
    33   16   17 1    
    34   17   18 1    
    35   17   81 1    
    36   17   82 1    
    37   18   19 1    
    38   18   22 1    
    39   18   83 1    
    40   19   20 am   BACKBONE|DICT|INTERRES
    41   19   21 2    
    42   20   84 1    
    43   20   85 1    
    44   22   23 am   BACKBONE|DICT|INTERRES
    45   22   86 1    
    46   23   24 2    
    47   23   25 1    
    48   25   26 1    
    49   25   27 1    
    50   25   87 1    
    51   26   88 1    
    52   26   89 1    
    53   26   90 1    
    54   27   28 am   BACKBONE|DICT|INTERRES
    55   27   91 1    
    56   28   29 2    
    57   28   30 1    
    58   30   31 1    
    59   30   32 1    
    60   30   92 1    
    61   31   93 1    
    62   31   94 1    
    63   31   95 1    
    64   32   33 am   BACKBONE|DICT|INTERRES
    65   32   96 1    
    66   33   34 2    
    67   33   35 1    
    68   35   36 1    
    69   35   37 1    
    70   35   97 1    
    71   36   98 1    
    72   36   99 1    
    73   36  100 1    
    74   37   38 am   BACKBONE|DICT|INTERRES
    75   37  101 1    
    76   38   39 2    
    77   38   40 1    
    78   40   41 1    
    79   40   42 1    
    80   40  102 1    
    81   41  103 1    
    82   41  104 1    
    83   41  105 1    
    84   42   43 am   BACKBONE|DICT|INTERRES
    85   42  106 1    
    86   43   44 2    
    87   43   45 1    
    88   45   46 1    
    89   45   49 1    
    90   45  107 1    
    91   46   47 1    
    92   46  108 1    
    93   46  109 1    
    94   47   48 1    
    95   48  110 1    
    96   48  111 1    
    97   49   50 am   BACKBONE|DICT|INTERRES
    98   49  112 1    
    99   50   51 2    
   100   50   52 1    
   101   52   53 1    
   102   52   54 1    
   103   52  113 1    
   104   53  114 1    
   105   53  115 1    
   106   53  116 1    
   107   54   55 am   BACKBONE|DICT|INTERRES
   108   54  117 1    
   109   55   56 2    
   110   55   57 1    
   111   57   58 1    
   112   57   59 1    
   113   57  118 1    
   114   58  119 1    
   115   58  120 1    
   116   58  121 1    
   117   59   60 am   BACKBONE|DICT|INTERRES
   118   59  122 1    
   119   60   61 2    
   120   60   62 1    
   121   62   63 1    
   122   62   64 1    
   123   62  123 1    
   124   63  124 1    
   125   63  125 1    
   126   63  126 1    
   127   64   65 am   BACKBONE|DICT|INTERRES
   128   64  127 1    
   129   65   66 2    
@<TRIPOS>SUBSTRUCTURE
     1 UNK         1 GROUP             0       ****    0 ROOT    
