@<TRIPOS>MOLECULE
3R135
127   129    1
SMALL
USER_CHARGES


@<TRIPOS>ATOM
      1 CA        -77.1490   25.3886  -70.2443 C.3       0 UNK        -0.1998 
      2 C         -78.3667   25.1954  -71.1345 C.2       0 UNK         0.4909 
      3 O         -78.2165   24.8259  -72.2980 O.2       0 UNK        -0.5240 
      4 N         -79.5716   25.4092  -70.5828 N.am      1 UNK        -0.4739 
      5 CA        -80.8810   25.3860  -71.2644 C.3       1 UNK         0.0864 
      6 C6        -81.0512   26.5684  -72.2587 C.3       11 UNK        -0.0881 
      7 S7        -81.1571   28.1625  -71.3824 S.3       11 UNK        -0.2682 
      8 C8        -80.9424   29.3420  -72.7604 C.3       11 UNK         0.0289 
      9 C9        -79.5326   29.9088  -72.9516 C.ar      11 UNK        -0.0687 
     10 C10       -79.2924   30.6999  -74.0810 C.ar      11 UNK        -0.0823 
     11 C11       -78.0512   31.3120  -74.2796 C.ar      11 UNK        -0.0830 
     12 C12       -77.0337   31.1182  -73.3430 C.ar      11 UNK        -0.1021 
     13 C13       -77.2516   30.3279  -72.2124 C.ar      11 UNK        -0.0753 
     14 C14       -78.4977   29.7233  -72.0222 C.ar      11 UNK        -0.0933 
     15 C15       -76.1441   30.1549  -71.1861 C.3       11 UNK         0.0166 
     16 S16       -75.1501   28.6815  -71.5503 S.3       11 UNK        -0.2615 
     17 C17       -73.6079   29.0684  -70.6536 C.3       11 UNK        -0.0865 
     18 CA        -72.5571   29.7666  -71.5583 C.3       10 UNK         0.0862 
     19 C         -71.2879   30.1597  -70.7483 C.2       10 UNK         0.5551 
     20 N         -70.1016   29.6705  -71.0881 N.am      10 UNK        -0.7319 
     21 O         -71.3829   30.9305  -69.7963 O.2       10 UNK        -0.5018 
     22 N         -72.2919   28.9824  -72.7741 N.am      10 UNK        -0.4509 
     23 C         -71.8544   29.4635  -73.9407 C.2       10 UNK         0.4899 
     24 O         -71.5613   30.6452  -74.1243 O.2       10 UNK        -0.4839 
     25 CA        -71.7381   28.4736  -75.1161 C.3       9 UNK         0.0222 
     26 CB        -70.3345   27.8406  -75.1736 C.3       9 UNK        -0.1966 
     27 N         -72.7945   27.4505  -75.1780 N.am      9 UNK        -0.4218 
     28 C         -73.0362   26.4256  -74.3444 C.2       9 UNK         0.5020 
     29 O         -72.3853   26.1994  -73.3232 O.2       9 UNK        -0.5274 
     30 CA        -74.2145   25.5028  -74.6966 C.3       8 UNK         0.0270 
     31 CB        -75.5299   26.0807  -74.1496 C.3       8 UNK        -0.1976 
     32 N         -74.3513   25.2687  -76.1340 N.am      8 UNK        -0.4313 
     33 C         -73.4790   24.6007  -76.9015 C.2       8 UNK         0.5041 
     34 O         -72.4478   24.0776  -76.4776 O.2       8 UNK        -0.5577 
     35 CA        -73.8124   24.5024  -78.3980 C.3       7 UNK         0.0284 
     36 CB        -74.8138   23.3666  -78.6650 C.3       7 UNK        -0.1958 
     37 N         -74.3586   25.7618  -78.9050 N.am      7 UNK        -0.4454 
     38 C         -73.6200   26.7617  -79.4033 C.2       7 UNK         0.5089 
     39 O         -72.3990   26.7039  -79.5517 O.2       7 UNK        -0.5125 
     40 CA        -74.3620   28.0483  -79.8142 C.3       6 UNK         0.0408 
     41 CB        -74.6788   28.0237  -81.3179 C.3       6 UNK        -0.1791 
     42 N         -75.5987   28.2962  -79.0661 N.am      6 UNK        -0.4762 
     43 C         -75.6552   28.5712  -77.7544 C.2       6 UNK         0.5007 
     44 O         -74.6663   28.6037  -77.0212 O.2       6 UNK        -0.5032 
     45 CA        -77.0640   28.7815  -77.1517 C.3       5 UNK         0.0783 
     46 C46       -77.6062   30.2033  -77.4469 C.3       11 UNK        -0.0857 
     47 S47       -76.6356   31.5372  -76.6647 S.3       11 UNK        -0.2512 
     48 C48       -77.8220   32.2305  -75.4717 C.3       11 UNK         0.0225 
     49 N         -78.0412   27.7595  -77.5639 N.am      5 UNK        -0.4615 
     50 C         -77.8644   26.4321  -77.5295 C.2       4 UNK         0.5053 
     51 O         -76.7979   25.8873  -77.2422 O.2       4 UNK        -0.5105 
     52 CA        -79.0591   25.5580  -77.9416 C.3       4 UNK         0.0263 
     53 CB        -79.0569   25.3430  -79.4638 C.3       4 UNK        -0.1981 
     54 N         -78.9966   24.2545  -77.2753 N.am      4 UNK        -0.4224 
     55 C         -79.2070   24.0695  -75.9655 C.2       3 UNK         0.4895 
     56 O         -79.6396   24.9462  -75.2138 O.2       3 UNK        -0.5091 
     57 CA        -78.8599   22.6764  -75.4189 C.3       3 UNK         0.0250 
     58 CB        -77.3366   22.4542  -75.3950 C.3       3 UNK        -0.1996 
     59 N         -79.3672   22.5378  -74.0563 N.am      3 UNK        -0.4254 
     60 C         -80.1622   21.5532  -73.6178 C.2       2 UNK         0.5004 
     61 O         -80.5183   20.6007  -74.3135 O.2       2 UNK        -0.5226 
     62 CA        -80.6452   21.6237  -72.1551 C.3       2 UNK         0.0269 
     63 CB        -79.8743   20.6170  -71.2850 C.3       2 UNK        -0.1926 
     64 N         -80.5191   22.9567  -71.5607 N.am      2 UNK        -0.4687 
     65 C         -81.2565   24.0236  -71.9000 C.2       1 UNK         0.5165 
     66 O         -82.2184   23.9499  -72.6670 O.2       1 UNK        -0.5079 
     67 H67       -76.4915   26.1433  -70.6731 H         1 UNK         0.0900 
     68 H68       -76.5902   24.4567  -70.1647 H         1 UNK         0.0900 
     69 H69       -77.4229   25.7100  -69.2397 H         1 UNK         0.0900 
     70 H70       -79.6138   25.6809  -69.6101 H         1 UNK         0.2959 
     71 H71       -81.6239   25.5154  -70.4754 H         1 UNK         0.1079 
     72 H72       -80.2292   26.5942  -72.9768 H         1 UNK         0.0837 
     73 H73       -81.9656   26.4715  -72.8467 H         1 UNK         0.0837 
     74 H74       -81.6171   30.1804  -72.5824 H         1 UNK         0.0685 
     75 H75       -81.2771   28.8754  -73.6883 H         1 UNK         0.0685 
     76 H76       -80.0884   30.8635  -74.7950 H         1 UNK         0.1434 
     77 H77       -76.0730   31.5932  -73.4904 H         1 UNK         0.1329 
     78 H78       -78.6519   29.1259  -71.1355 H         1 UNK         0.1335 
     79 H79       -76.5624   30.0713  -70.1818 H         1 UNK         0.0680 
     80 H80       -75.5041   31.0388  -71.1827 H         1 UNK         0.0680 
     81 H81       -73.8453   29.6841  -69.7836 H         1 UNK         0.1032 
     82 H82       -73.2036   28.1344  -70.2590 H         1 UNK         0.1032 
     83 H83       -72.9958   30.7128  -71.8813 H         1 UNK         0.0461 
     84 H84       -70.0190   29.0406  -71.8698 H         1 UNK         0.3453 
     85 H85       -69.2851   29.9346  -70.5596 H         1 UNK         0.3453 
     86 H86       -72.4647   27.9829  -72.7164 H         1 UNK         0.2984 
     87 H87       -71.8650   29.0630  -76.0256 H         1 UNK         0.0554 
     88 H88       -70.2263   27.1991  -76.0483 H         1 UNK         0.0847 
     89 H89       -70.1190   27.2402  -74.2894 H         1 UNK         0.0847 
     90 H90       -69.5637   28.6097  -75.2378 H         1 UNK         0.0847 
     91 H91       -73.4652   27.6023  -75.9288 H         1 UNK         0.3141 
     92 H92       -74.0400   24.5360  -74.2201 H         1 UNK         0.0743 
     93 H93       -75.5053   26.1322  -73.0611 H         1 UNK         0.0784 
     94 H94       -75.7166   27.0890  -74.5209 H         1 UNK         0.0784 
     95 H95       -76.3882   25.4659  -74.4194 H         1 UNK         0.0784 
     96 H96       -75.2123   25.6058  -76.5653 H         1 UNK         0.3213 
     97 H97       -72.8880   24.2640  -78.9292 H         1 UNK         0.0855 
     98 H98       -75.7844   23.5662  -78.2120 H         1 UNK         0.0814 
     99 H99       -74.4504   22.4210  -78.2602 H         1 UNK         0.0814 
    100 H100      -74.9696   23.2228  -79.7342 H         1 UNK         0.0814 
    101 H101      -75.3464   25.9228  -78.7490 H         1 UNK         0.3105 
    102 H102      -73.6877   28.8860  -79.6238 H         1 UNK         0.0547 
    103 H103      -75.3711   27.2202  -81.5725 H         1 UNK         0.0837 
    104 H104      -75.1184   28.9651  -81.6478 H         1 UNK         0.0837 
    105 H105      -73.7722   27.8698  -81.9050 H         1 UNK         0.0837 
    106 H106      -76.4632   28.2630  -79.5873 H         1 UNK         0.3020 
    107 H107      -76.9593   28.6814  -76.0687 H         1 UNK         0.1245 
    108 H108      -78.6391   30.2815  -77.1047 H         1 UNK         0.0781 
    109 H109      -77.6394   30.3888  -78.5221 H         1 UNK         0.0781 
    110 H110      -77.4344   33.1845  -75.1112 H         1 UNK         0.0836 
    111 H111      -78.7595   32.4610  -75.9804 H         1 UNK         0.0836 
    112 H112      -78.9467   28.1088  -77.8419 H         1 UNK         0.3022 
    113 H113      -79.9857   26.0575  -77.6503 H         1 UNK         0.0747 
    114 H114      -79.1345   26.2926  -79.9949 H         1 UNK         0.0793 
    115 H115      -79.9010   24.7290  -79.7786 H         1 UNK         0.0793 
    116 H116      -78.1419   24.8543  -79.8023 H         1 UNK         0.0793 
    117 H117      -78.6206   23.4916  -77.8184 H         1 UNK         0.3047 
    118 H118      -79.3201   21.9376  -76.0784 H         1 UNK         0.0822 
    119 H119      -76.9047   22.5365  -76.3918 H         1 UNK         0.0807 
    120 H120      -77.0898   21.4609  -75.0197 H         1 UNK         0.0807 
    121 H121      -76.8337   23.1830  -74.7588 H         1 UNK         0.0807 
    122 H122      -79.1626   23.3217  -73.4420 H         1 UNK         0.2946 
    123 H123      -81.7018   21.3459  -72.1515 H         1 UNK         0.1144 
    124 H124      -79.9719   19.6045  -71.6796 H         1 UNK         0.0793 
    125 H125      -80.2538   20.6019  -70.2632 H         1 UNK         0.0793 
    126 H126      -78.8094   20.8501  -71.2463 H         1 UNK         0.0793 
    127 H127      -79.7453   23.1050  -70.9290 H         1 UNK         0.2896 
@<TRIPOS>BOND
     1    1    2 1    
     2    1   67 1    
     3    1   68 1    
     4    1   69 1    
     5    2    3 2    
     6    2    4 am   BACKBONE|DICT|INTERRES
     7    4    5 1    
     8    4   70 1    
     9    5    6 1    
    10    5   65 1    
    11    5   71 1    
    12    6    7 1    
    13    6   72 1    
    14    6   73 1    
    15    7    8 1    
    16    8    9 1    
    17    8   74 1    
    18    8   75 1    
    19    9   10 ar   
    20    9   14 ar   
    21   10   11 ar   
    22   10   76 1    
    23   11   12 ar   
    24   11   48 1    
    25   12   13 ar   
    26   12   77 1    
    27   13   14 ar   
    28   13   15 1    
    29   14   78 1    
    30   15   16 1    
    31   15   79 1    
    32   15   80 1    
    33   16   17 1    
    34   17   18 1    
    35   17   81 1    
    36   17   82 1    
    37   18   19 1    
    38   18   22 1    
    39   18   83 1    
    40   19   20 am   BACKBONE|DICT|INTERRES
    41   19   21 2    
    42   20   84 1    
    43   20   85 1    
    44   22   23 am   BACKBONE|DICT|INTERRES
    45   22   86 1    
    46   23   24 2    
    47   23   25 1    
    48   25   26 1    
    49   25   27 1    
    50   25   87 1    
    51   26   88 1    
    52   26   89 1    
    53   26   90 1    
    54   27   28 am   BACKBONE|DICT|INTERRES
    55   27   91 1    
    56   28   29 2    
    57   28   30 1    
    58   30   31 1    
    59   30   32 1    
    60   30   92 1    
    61   31   93 1    
    62   31   94 1    
    63   31   95 1    
    64   32   33 am   BACKBONE|DICT|INTERRES
    65   32   96 1    
    66   33   34 2    
    67   33   35 1    
    68   35   36 1    
    69   35   37 1    
    70   35   97 1    
    71   36   98 1    
    72   36   99 1    
    73   36  100 1    
    74   37   38 am   BACKBONE|DICT|INTERRES
    75   37  101 1    
    76   38   39 2    
    77   38   40 1    
    78   40   41 1    
    79   40   42 1    
    80   40  102 1    
    81   41  103 1    
    82   41  104 1    
    83   41  105 1    
    84   42   43 am   BACKBONE|DICT|INTERRES
    85   42  106 1    
    86   43   44 2    
    87   43   45 1    
    88   45   46 1    
    89   45   49 1    
    90   45  107 1    
    91   46   47 1    
    92   46  108 1    
    93   46  109 1    
    94   47   48 1    
    95   48  110 1    
    96   48  111 1    
    97   49   50 am   BACKBONE|DICT|INTERRES
    98   49  112 1    
    99   50   51 2    
   100   50   52 1    
   101   52   53 1    
   102   52   54 1    
   103   52  113 1    
   104   53  114 1    
   105   53  115 1    
   106   53  116 1    
   107   54   55 am   BACKBONE|DICT|INTERRES
   108   54  117 1    
   109   55   56 2    
   110   55   57 1    
   111   57   58 1    
   112   57   59 1    
   113   57  118 1    
   114   58  119 1    
   115   58  120 1    
   116   58  121 1    
   117   59   60 am   BACKBONE|DICT|INTERRES
   118   59  122 1    
   119   60   61 2    
   120   60   62 1    
   121   62   63 1    
   122   62   64 1    
   123   62  123 1    
   124   63  124 1    
   125   63  125 1    
   126   63  126 1    
   127   64   65 am   BACKBONE|DICT|INTERRES
   128   64  127 1    
   129   65   66 2    
@<TRIPOS>SUBSTRUCTURE
     1 UNK         1 GROUP             0       ****    0 ROOT    
