@<TRIPOS>MOLECULE
3R135
127   129    1
SMALL
USER_CHARGES


@<TRIPOS>ATOM
      1 CA        -78.0195   28.5332  -76.9724 C.3       0 UNK        -0.1998 
      2 C         -78.7185   27.7513  -75.8712 C.2       0 UNK         0.4909 
      3 O         -78.2431   26.6810  -75.4906 O.2       0 UNK        -0.5240 
      4 N         -79.8375   28.2817  -75.3613 N.am      1 UNK        -0.4739 
      5 CA        -80.6553   27.6796  -74.3042 C.3       1 UNK         0.0864 
      6 C6        -81.3741   28.7717  -73.4636 C.3       11 UNK        -0.0881 
      7 S7        -81.7917   28.1888  -71.7820 S.3       11 UNK        -0.2682 
      8 C8        -80.6027   29.1000  -70.7506 C.3       11 UNK         0.0289 
      9 C9        -79.1561   28.7439  -71.0660 C.ar      11 UNK        -0.0687 
     10 C10       -78.6395   27.4944  -70.7075 C.ar      11 UNK        -0.0823 
     11 C11       -77.2936   27.1925  -70.9376 C.ar      11 UNK        -0.0830 
     12 C12       -76.4605   28.1585  -71.5076 C.ar      11 UNK        -0.1021 
     13 C13       -76.9729   29.3957  -71.9083 C.ar      11 UNK        -0.0753 
     14 C14       -78.3229   29.6811  -71.6847 C.ar      11 UNK        -0.0933 
     15 C15       -76.0652   30.4444  -72.5377 C.3       11 UNK         0.0166 
     16 S16       -75.7260   30.1312  -74.3050 S.3       11 UNK        -0.2615 
     17 C17       -74.5612   28.7202  -74.2824 C.3       11 UNK        -0.0865 
     18 CA        -73.2031   29.0362  -73.5945 C.3       10 UNK         0.0862 
     19 C         -72.3405   27.7607  -73.3698 C.2       10 UNK         0.5551 
     20 N         -71.0515   27.7509  -73.6903 N.am      10 UNK        -0.7319 
     21 O         -72.8463   26.7638  -72.8623 O.2       10 UNK        -0.5018 
     22 N         -72.4896   30.1155  -74.2895 N.am      10 UNK        -0.4509 
     23 C         -71.7495   31.0621  -73.6981 C.2       10 UNK         0.4899 
     24 O         -71.6673   31.1983  -72.4763 O.2       10 UNK        -0.4839 
     25 CA        -70.9664   32.0186  -74.6264 C.3       9 UNK         0.0222 
     26 CB        -69.7061   32.6004  -73.9505 C.3       9 UNK        -0.1966 
     27 N         -70.6321   31.4324  -75.9330 N.am      9 UNK        -0.4218 
     28 C         -69.9093   30.3251  -76.1556 C.2       9 UNK         0.5020 
     29 O         -69.3550   29.6646  -75.2733 O.2       9 UNK        -0.5274 
     30 CA        -69.8441   29.8408  -77.6140 C.3       8 UNK         0.0270 
     31 CB        -68.4185   29.9821  -78.1721 C.3       8 UNK        -0.1976 
     32 N         -70.2846   28.4480  -77.7425 N.am      8 UNK        -0.4313 
     33 C         -71.4823   27.9782  -77.3644 C.2       8 UNK         0.5041 
     34 O         -72.3733   28.6891  -76.8914 O.2       8 UNK        -0.5577 
     35 CA        -71.6967   26.4616  -77.5375 C.3       7 UNK         0.0284 
     36 CB        -70.8241   25.6509  -76.5636 C.3       7 UNK        -0.1958 
     37 N         -73.0894   26.0438  -77.3620 N.am      7 UNK        -0.4454 
     38 C         -74.1009   26.3322  -78.1846 C.2       7 UNK         0.5089 
     39 O         -73.9708   27.0086  -79.2064 O.2       7 UNK        -0.5125 
     40 CA        -75.4927   25.7482  -77.8652 C.3       6 UNK         0.0408 
     41 CB        -75.7524   24.5010  -78.7318 C.3       6 UNK        -0.1791 
     42 N         -75.8343   25.4539  -76.4623 N.am      6 UNK        -0.4762 
     43 C         -75.2764   24.5877  -75.5992 C.2       6 UNK         0.5007 
     44 O         -74.1649   24.0796  -75.7445 O.2       6 UNK        -0.5032 
     45 CA        -76.1679   24.1391  -74.4213 C.3       5 UNK         0.0783 
     46 C46       -76.1273   25.1402  -73.2422 C.3       11 UNK        -0.0857 
     47 S47       -77.1131   24.5655  -71.8167 S.3       11 UNK        -0.2512 
     48 C48       -76.7321   25.8289  -70.5607 C.3       11 UNK         0.0225 
     49 N         -77.5348   23.9033  -74.8964 N.am      5 UNK        -0.4615 
     50 C         -77.9081   22.8823  -75.6774 C.2       4 UNK         0.5053 
     51 O         -77.1624   21.9555  -75.9993 O.2       4 UNK        -0.5105 
     52 CA        -79.3637   22.9222  -76.1732 C.3       4 UNK         0.0263 
     53 CB        -79.7431   21.7189  -77.0630 C.3       4 UNK        -0.1981 
     54 N         -80.3132   23.0888  -75.0681 N.am      4 UNK        -0.4224 
     55 C         -80.5276   22.2496  -74.0393 C.2       3 UNK         0.4895 
     56 O         -79.9594   21.1648  -73.9086 O.2       3 UNK        -0.5091 
     57 CA        -81.5373   22.6814  -72.9543 C.3       3 UNK         0.0250 
     58 CB        -80.8183   22.9225  -71.6155 C.3       3 UNK        -0.1996 
     59 N         -82.2931   23.8868  -73.2967 N.am      3 UNK        -0.4254 
     60 C         -83.2707   23.9662  -74.2105 C.2       2 UNK         0.5004 
     61 O         -83.7444   22.9931  -74.7967 O.2       2 UNK        -0.5226 
     62 CA        -83.7697   25.3815  -74.5576 C.3       2 UNK         0.0269 
     63 CB        -85.0792   25.6903  -73.8146 C.3       2 UNK        -0.1926 
     64 N         -82.7860   26.4301  -74.2556 N.am      2 UNK        -0.4687 
     65 C         -81.6017   26.5865  -74.8658 C.2       1 UNK         0.5165 
     66 O         -81.2428   25.8659  -75.7995 O.2       1 UNK        -0.5079 
     67 H67       -76.9491   28.5858  -76.7741 H         1 UNK         0.0900 
     68 H68       -78.3962   29.5530  -77.0472 H         1 UNK         0.0900 
     69 H69       -78.1679   28.0415  -77.9331 H         1 UNK         0.0900 
     70 H70       -80.1902   29.1455  -75.7474 H         1 UNK         0.2959 
     71 H71       -79.9667   27.1569  -73.6351 H         1 UNK         0.1079 
     72 H72       -80.7342   29.6501  -73.3683 H         1 UNK         0.0837 
     73 H73       -82.2765   29.1320  -73.9616 H         1 UNK         0.0837 
     74 H74       -80.8042   28.8744  -69.7025 H         1 UNK         0.0685 
     75 H75       -80.7756   30.1709  -70.8683 H         1 UNK         0.0685 
     76 H76       -79.2849   26.7595  -70.2456 H         1 UNK         0.1434 
     77 H77       -75.4115   27.9389  -71.6452 H         1 UNK         0.1329 
     78 H78       -78.7200   30.6454  -71.9709 H         1 UNK         0.1335 
     79 H79       -76.5349   31.4263  -72.4627 H         1 UNK         0.0680 
     80 H80       -75.1403   30.5301  -71.9694 H         1 UNK         0.0680 
     81 H81       -75.0567   27.8704  -73.8202 H         1 UNK         0.1032 
     82 H82       -74.3930   28.4115  -75.3148 H         1 UNK         0.1032 
     83 H83       -73.4186   29.3685  -72.5806 H         1 UNK         0.0461 
     84 H84       -70.5099   26.9226  -73.5069 H         1 UNK         0.3453 
     85 H85       -70.6102   28.5531  -74.1258 H         1 UNK         0.3453 
     86 H86       -72.4602   30.0175  -75.2990 H         1 UNK         0.2984 
     87 H87       -71.6412   32.8504  -74.8333 H         1 UNK         0.0554 
     88 H88       -69.1763   33.2816  -74.6161 H         1 UNK         0.0847 
     89 H89       -69.0101   31.8168  -73.6491 H         1 UNK         0.0847 
     90 H90       -69.9661   33.1647  -73.0541 H         1 UNK         0.0847 
     91 H91       -71.0647   31.8810  -76.7294 H         1 UNK         0.3141 
     92 H92       -70.5133   30.4517  -78.2237 H         1 UNK         0.0743 
     93 H93       -68.0744   31.0152  -78.1050 H         1 UNK         0.0784 
     94 H94       -67.7065   29.3660  -77.6209 H         1 UNK         0.0784 
     95 H95       -68.3710   29.6940  -79.2225 H         1 UNK         0.0784 
     96 H96       -69.6003   27.7946  -78.0947 H         1 UNK         0.3213 
     97 H97       -71.4006   26.2085  -78.5578 H         1 UNK         0.0855 
     98 H98       -71.1628   25.7622  -75.5344 H         1 UNK         0.0814 
     99 H99       -69.7782   25.9576  -76.6003 H         1 UNK         0.0814 
    100 H100      -70.8544   24.5879  -76.8040 H         1 UNK         0.0814 
    101 H101      -73.2976   25.4272  -76.5805 H         1 UNK         0.3105 
    102 H102      -76.2087   26.5091  -78.1767 H         1 UNK         0.0547 
    103 H103      -75.0899   23.6776  -78.4627 H         1 UNK         0.0837 
    104 H104      -76.7795   24.1514  -78.6269 H         1 UNK         0.0837 
    105 H105      -75.5913   24.7155  -79.7891 H         1 UNK         0.0837 
    106 H106      -76.7262   25.8481  -76.1646 H         1 UNK         0.3020 
    107 H107      -75.7692   23.1859  -74.0660 H         1 UNK         0.1245 
    108 H108      -76.5138   26.1110  -73.5533 H         1 UNK         0.0781 
    109 H109      -75.0999   25.2984  -72.9104 H         1 UNK         0.0781 
    110 H110      -75.6519   25.8810  -70.4149 H         1 UNK         0.0836 
    111 H111      -77.1522   25.5134  -69.6046 H         1 UNK         0.0836 
    112 H112      -78.1877   24.6604  -74.7348 H         1 UNK         0.3022 
    113 H113      -79.4509   23.8208  -76.7866 H         1 UNK         0.0747 
    114 H114      -80.7717   21.7962  -77.4153 H         1 UNK         0.0793 
    115 H115      -79.1012   21.6701  -77.9434 H         1 UNK         0.0793 
    116 H116      -79.6395   20.7708  -76.5346 H         1 UNK         0.0793 
    117 H117      -80.8266   23.9630  -75.0887 H         1 UNK         0.3047 
    118 H118      -82.2435   21.8586  -72.8242 H         1 UNK         0.0822 
    119 H119      -80.2613   22.0379  -71.3034 H         1 UNK         0.0807 
    120 H120      -81.5264   23.1534  -70.8194 H         1 UNK         0.0807 
    121 H121      -80.1068   23.7465  -71.6824 H         1 UNK         0.0807 
    122 H122      -81.9960   24.7442  -72.8544 H         1 UNK         0.2946 
    123 H123      -83.9662   25.4006  -75.6321 H         1 UNK         0.1144 
    124 H124      -85.8402   24.9406  -74.0365 H         1 UNK         0.0793 
    125 H125      -85.4847   26.6580  -74.1107 H         1 UNK         0.0793 
    126 H126      -84.9376   25.7015  -72.7331 H         1 UNK         0.0793 
    127 H127      -82.9976   27.0426  -73.4775 H         1 UNK         0.2896 
@<TRIPOS>BOND
     1    1    2 1    
     2    1   67 1    
     3    1   68 1    
     4    1   69 1    
     5    2    3 2    
     6    2    4 am   BACKBONE|DICT|INTERRES
     7    4    5 1    
     8    4   70 1    
     9    5    6 1    
    10    5   65 1    
    11    5   71 1    
    12    6    7 1    
    13    6   72 1    
    14    6   73 1    
    15    7    8 1    
    16    8    9 1    
    17    8   74 1    
    18    8   75 1    
    19    9   10 ar   
    20    9   14 ar   
    21   10   11 ar   
    22   10   76 1    
    23   11   12 ar   
    24   11   48 1    
    25   12   13 ar   
    26   12   77 1    
    27   13   14 ar   
    28   13   15 1    
    29   14   78 1    
    30   15   16 1    
    31   15   79 1    
    32   15   80 1    
    33   16   17 1    
    34   17   18 1    
    35   17   81 1    
    36   17   82 1    
    37   18   19 1    
    38   18   22 1    
    39   18   83 1    
    40   19   20 am   BACKBONE|DICT|INTERRES
    41   19   21 2    
    42   20   84 1    
    43   20   85 1    
    44   22   23 am   BACKBONE|DICT|INTERRES
    45   22   86 1    
    46   23   24 2    
    47   23   25 1    
    48   25   26 1    
    49   25   27 1    
    50   25   87 1    
    51   26   88 1    
    52   26   89 1    
    53   26   90 1    
    54   27   28 am   BACKBONE|DICT|INTERRES
    55   27   91 1    
    56   28   29 2    
    57   28   30 1    
    58   30   31 1    
    59   30   32 1    
    60   30   92 1    
    61   31   93 1    
    62   31   94 1    
    63   31   95 1    
    64   32   33 am   BACKBONE|DICT|INTERRES
    65   32   96 1    
    66   33   34 2    
    67   33   35 1    
    68   35   36 1    
    69   35   37 1    
    70   35   97 1    
    71   36   98 1    
    72   36   99 1    
    73   36  100 1    
    74   37   38 am   BACKBONE|DICT|INTERRES
    75   37  101 1    
    76   38   39 2    
    77   38   40 1    
    78   40   41 1    
    79   40   42 1    
    80   40  102 1    
    81   41  103 1    
    82   41  104 1    
    83   41  105 1    
    84   42   43 am   BACKBONE|DICT|INTERRES
    85   42  106 1    
    86   43   44 2    
    87   43   45 1    
    88   45   46 1    
    89   45   49 1    
    90   45  107 1    
    91   46   47 1    
    92   46  108 1    
    93   46  109 1    
    94   47   48 1    
    95   48  110 1    
    96   48  111 1    
    97   49   50 am   BACKBONE|DICT|INTERRES
    98   49  112 1    
    99   50   51 2    
   100   50   52 1    
   101   52   53 1    
   102   52   54 1    
   103   52  113 1    
   104   53  114 1    
   105   53  115 1    
   106   53  116 1    
   107   54   55 am   BACKBONE|DICT|INTERRES
   108   54  117 1    
   109   55   56 2    
   110   55   57 1    
   111   57   58 1    
   112   57   59 1    
   113   57  118 1    
   114   58  119 1    
   115   58  120 1    
   116   58  121 1    
   117   59   60 am   BACKBONE|DICT|INTERRES
   118   59  122 1    
   119   60   61 2    
   120   60   62 1    
   121   62   63 1    
   122   62   64 1    
   123   62  123 1    
   124   63  124 1    
   125   63  125 1    
   126   63  126 1    
   127   64   65 am   BACKBONE|DICT|INTERRES
   128   64  127 1    
   129   65   66 2    
@<TRIPOS>SUBSTRUCTURE
     1 UNK         1 GROUP             0       ****    0 ROOT    
