@<TRIPOS>MOLECULE
3R135
127   129    1
SMALL
USER_CHARGES


@<TRIPOS>ATOM
      1 CA        -78.9087   25.5805  -69.4979 C.3       0 UNK        -0.1998 
      2 C         -79.8647   25.3589  -70.6599 C.2       0 UNK         0.4909 
      3 O         -79.4277   24.9163  -71.7204 O.2       0 UNK        -0.5240 
      4 N         -81.1599   25.6438  -70.4461 N.am      1 UNK        -0.4739 
      5 CA        -82.2875   25.6196  -71.4003 C.3       1 UNK         0.0864 
      6 C6        -82.4895   26.9617  -72.1644 C.3       11 UNK        -0.0881 
      7 S7        -81.0940   27.4981  -73.2141 S.3       11 UNK        -0.2682 
      8 C8        -80.4672   28.9013  -72.2433 C.3       11 UNK         0.0289 
      9 C9        -79.1848   29.4633  -72.8361 C.ar      11 UNK        -0.0687 
     10 C10       -79.2360   30.3394  -73.9250 C.ar      11 UNK        -0.0823 
     11 C11       -78.0614   30.8820  -74.4562 C.ar      11 UNK        -0.0830 
     12 C12       -76.8305   30.5414  -73.8862 C.ar      11 UNK        -0.1021 
     13 C13       -76.7671   29.6631  -72.8013 C.ar      11 UNK        -0.0753 
     14 C14       -77.9473   29.1247  -72.2812 C.ar      11 UNK        -0.0933 
     15 C15       -75.4214   29.2820  -72.2086 C.3       11 UNK         0.0166 
     16 S16       -74.6241   30.6845  -71.3667 S.3       11 UNK        -0.2615 
     17 C17       -73.1071   29.8823  -70.7432 C.3       11 UNK        -0.0865 
     18 CA        -71.8676   30.0896  -71.6548 C.3       10 UNK         0.0862 
     19 C         -70.6109   29.4524  -70.9901 C.2       10 UNK         0.5551 
     20 N         -70.1193   28.3099  -71.4584 N.am      10 UNK        -0.7319 
     21 O         -70.0788   30.0062  -70.0313 O.2       10 UNK        -0.5018 
     22 N         -72.1175   29.6242  -73.0273 N.am      10 UNK        -0.4509 
     23 C         -71.3255   29.8438  -74.0832 C.2       10 UNK         0.4899 
     24 O         -70.3633   30.6129  -74.0611 O.2       10 UNK        -0.4839 
     25 CA        -71.6560   29.0746  -75.3821 C.3       9 UNK         0.0222 
     26 CB        -70.3807   28.6395  -76.1329 C.3       9 UNK        -0.1966 
     27 N         -72.5587   27.9225  -75.2231 N.am      9 UNK        -0.4218 
     28 C         -72.3907   26.8445  -74.4383 C.2       9 UNK         0.5020 
     29 O         -71.4599   26.7087  -73.6421 O.2       9 UNK        -0.5274 
     30 CA        -73.4506   25.7366  -74.5512 C.3       8 UNK         0.0270 
     31 CB        -74.7460   26.1262  -73.8218 C.3       8 UNK        -0.1976 
     32 N         -73.7586   25.3976  -75.9398 N.am      8 UNK        -0.4313 
     33 C         -72.9162   24.7741  -76.7754 C.2       8 UNK         0.5041 
     34 O         -71.7970   24.3716  -76.4556 O.2       8 UNK        -0.5577 
     35 CA        -73.4061   24.5682  -78.2154 C.3       7 UNK         0.0284 
     36 CB        -74.3689   23.3723  -78.2999 C.3       7 UNK        -0.1958 
     37 N         -74.0521   25.7746  -78.7361 N.am      7 UNK        -0.4454 
     38 C         -73.3841   26.8417  -79.1970 C.2       7 UNK         0.5089 
     39 O         -72.1577   26.8930  -79.2921 O.2       7 UNK        -0.5125 
     40 CA        -74.2163   28.0601  -79.6374 C.3       6 UNK         0.0408 
     41 CB        -74.4429   28.0305  -81.1572 C.3       6 UNK        -0.1791 
     42 N         -75.5108   28.1743  -78.9599 N.am      6 UNK        -0.4762 
     43 C         -75.6669   28.4730  -77.6618 C.2       6 UNK         0.5007 
     44 O         -74.7315   28.6404  -76.8786 O.2       6 UNK        -0.5032 
     45 CA        -77.1197   28.5232  -77.1408 C.3       5 UNK         0.0783 
     46 C46       -77.8622   29.8149  -77.5742 C.3       11 UNK        -0.0857 
     47 S47       -77.0697   31.3652  -77.0225 S.3       11 UNK        -0.2512 
     48 C48       -78.1271   31.8599  -75.6230 C.3       11 UNK         0.0225 
     49 N         -77.8892   27.3314  -77.5235 N.am      5 UNK        -0.4615 
     50 C         -77.5392   26.0624  -77.2784 C.2       4 UNK         0.5053 
     51 O         -76.4764   25.7278  -76.7486 O.2       4 UNK        -0.5105 
     52 CA        -78.5149   24.9765  -77.7554 C.3       4 UNK         0.0263 
     53 CB        -78.1171   24.4656  -79.1496 C.3       4 UNK        -0.1981 
     54 N         -78.5151   23.8630  -76.8066 N.am      4 UNK        -0.4224 
     55 C         -79.1593   23.8966  -75.6338 C.2       3 UNK         0.4895 
     56 O         -79.9556   24.7835  -75.3208 O.2       3 UNK        -0.5091 
     57 CA        -78.8192   22.7735  -74.6434 C.3       3 UNK         0.0250 
     58 CB        -77.4623   23.0481  -73.9721 C.3       3 UNK        -0.1996 
     59 N         -79.8437   22.6788  -73.6037 N.am      3 UNK        -0.4254 
     60 C         -80.8938   21.8482  -73.6433 C.2       2 UNK         0.5004 
     61 O         -81.0763   21.0217  -74.5388 O.2       2 UNK        -0.5226 
     62 CA        -81.9111   21.9255  -72.4888 C.3       2 UNK         0.0269 
     63 CB        -81.6505   20.8044  -71.4691 C.3       2 UNK        -0.1926 
     64 N         -81.9119   23.2127  -71.7896 N.am      2 UNK        -0.4687 
     65 C         -82.4178   24.3518  -72.2838 C.2       1 UNK         0.5165 
     66 O         -83.0125   24.4060  -73.3621 O.2       1 UNK        -0.5079 
     67 H67       -79.4154   25.9827  -68.6209 H         1 UNK         0.0900 
     68 H68       -78.1260   26.2809  -69.7879 H         1 UNK         0.0900 
     69 H69       -78.4363   24.6398  -69.2167 H         1 UNK         0.0900 
     70 H70       -81.4183   25.9605  -69.5217 H         1 UNK         0.2959 
     71 H71       -83.1619   25.5337  -70.7528 H         1 UNK         0.1079 
     72 H72       -83.3817   26.9155  -72.7913 H         1 UNK         0.0837 
     73 H73       -82.7051   27.7488  -71.4404 H         1 UNK         0.0837 
     74 H74       -80.2983   28.5797  -71.2143 H         1 UNK         0.0685 
     75 H75       -81.2279   29.6823  -72.2027 H         1 UNK         0.0685 
     76 H76       -80.1949   30.6010  -74.3517 H         1 UNK         0.1434 
     77 H77       -75.9175   30.9603  -74.2880 H         1 UNK         0.1329 
     78 H78       -77.9049   28.4430  -71.4428 H         1 UNK         0.1335 
     79 H79       -74.7762   28.9321  -73.0128 H         1 UNK         0.0680 
     80 H80       -75.5314   28.4530  -71.5075 H         1 UNK         0.0680 
     81 H81       -72.9118   30.2958  -69.7516 H         1 UNK         0.1032 
     82 H82       -73.2946   28.8183  -70.5851 H         1 UNK         0.1032 
     83 H83       -71.6755   31.1626  -71.7141 H         1 UNK         0.0461 
     84 H84       -70.5623   27.8350  -72.2387 H         1 UNK         0.3453 
     85 H85       -69.3057   27.9067  -71.0223 H         1 UNK         0.3453 
     86 H86       -72.8749   28.9710  -73.1416 H         1 UNK         0.2984 
     87 H87       -72.1889   29.7816  -76.0194 H         1 UNK         0.0554 
     88 H88       -70.6253   28.1302  -77.0654 H         1 UNK         0.0847 
     89 H89       -69.7715   27.9632  -75.5321 H         1 UNK         0.0847 
     90 H90       -69.7591   29.4982  -76.3893 H         1 UNK         0.0847 
     91 H91       -73.3902   27.9649  -75.8117 H         1 UNK         0.3141 
     92 H92       -73.0474   24.8440  -74.0680 H         1 UNK         0.0743 
     93 H93       -74.5467   26.3958  -72.7841 H         1 UNK         0.0784 
     94 H94       -75.2448   26.9696  -74.3011 H         1 UNK         0.0784 
     95 H95       -75.4509   25.2959  -73.8080 H         1 UNK         0.0784 
     96 H96       -74.6890   25.6411  -76.2762 H         1 UNK         0.3213 
     97 H97       -72.5365   24.3410  -78.8366 H         1 UNK         0.0855 
     98 H98       -75.2475   23.5090  -77.6694 H         1 UNK         0.0814 
     99 H99       -73.8759   22.4569  -77.9700 H         1 UNK         0.0814 
    100 H100      -74.7066   23.2057  -79.3227 H         1 UNK         0.0814 
    101 H101      -75.0554   25.8389  -78.6409 H         1 UNK         0.3105 
    102 H102      -73.6352   28.9536  -79.3988 H         1 UNK         0.0547 
    103 H103      -75.0373   27.1681  -81.4615 H         1 UNK         0.0837 
    104 H104      -74.9531   28.9304  -81.5011 H         1 UNK         0.0837 
    105 H105      -73.4935   27.9758  -81.6918 H         1 UNK         0.0837 
    106 H106      -76.3363   28.0312  -79.5239 H         1 UNK         0.3020 
    107 H107      -77.0612   28.5173  -76.0498 H         1 UNK         0.1245 
    108 H108      -78.8858   29.7954  -77.1963 H         1 UNK         0.0781 
    109 H109      -77.9512   29.8555  -78.6613 H         1 UNK         0.0781 
    110 H110      -79.1518   31.9820  -75.9777 H         1 UNK         0.0836 
    111 H111      -77.8064   32.8419  -75.2727 H         1 UNK         0.0836 
    112 H112      -78.7750   27.5049  -77.9759 H         1 UNK         0.3022 
    113 H113      -79.5212   25.3974  -77.8147 H         1 UNK         0.0747 
    114 H114      -78.8126   23.7044  -79.5038 H         1 UNK         0.0793 
    115 H115      -78.1269   25.2752  -79.8806 H         1 UNK         0.0793 
    116 H116      -77.1174   24.0326  -79.1575 H         1 UNK         0.0793 
    117 H117      -77.8466   23.1259  -76.9757 H         1 UNK         0.3047 
    118 H118      -78.7528   21.8316  -75.1924 H         1 UNK         0.0822 
    119 H119      -76.6605   23.1167  -74.7087 H         1 UNK         0.0807 
    120 H120      -77.1963   22.2528  -73.2759 H         1 UNK         0.0807 
    121 H121      -77.4754   23.9870  -73.4171 H         1 UNK         0.0807 
    122 H122      -79.8105   23.3990  -72.8855 H         1 UNK         0.2946 
    123 H123      -82.9016   21.7699  -72.9228 H         1 UNK         0.1144 
    124 H124      -81.6721   19.8258  -71.9509 H         1 UNK         0.0793 
    125 H125      -82.4094   20.7945  -70.6865 H         1 UNK         0.0793 
    126 H126      -80.6753   20.9112  -70.9923 H         1 UNK         0.0793 
    127 H127      -81.4328   23.2533  -70.9016 H         1 UNK         0.2896 
@<TRIPOS>BOND
     1    1    2 1    
     2    1   67 1    
     3    1   68 1    
     4    1   69 1    
     5    2    3 2    
     6    2    4 am   BACKBONE|DICT|INTERRES
     7    4    5 1    
     8    4   70 1    
     9    5    6 1    
    10    5   65 1    
    11    5   71 1    
    12    6    7 1    
    13    6   72 1    
    14    6   73 1    
    15    7    8 1    
    16    8    9 1    
    17    8   74 1    
    18    8   75 1    
    19    9   10 ar   
    20    9   14 ar   
    21   10   11 ar   
    22   10   76 1    
    23   11   12 ar   
    24   11   48 1    
    25   12   13 ar   
    26   12   77 1    
    27   13   14 ar   
    28   13   15 1    
    29   14   78 1    
    30   15   16 1    
    31   15   79 1    
    32   15   80 1    
    33   16   17 1    
    34   17   18 1    
    35   17   81 1    
    36   17   82 1    
    37   18   19 1    
    38   18   22 1    
    39   18   83 1    
    40   19   20 am   BACKBONE|DICT|INTERRES
    41   19   21 2    
    42   20   84 1    
    43   20   85 1    
    44   22   23 am   BACKBONE|DICT|INTERRES
    45   22   86 1    
    46   23   24 2    
    47   23   25 1    
    48   25   26 1    
    49   25   27 1    
    50   25   87 1    
    51   26   88 1    
    52   26   89 1    
    53   26   90 1    
    54   27   28 am   BACKBONE|DICT|INTERRES
    55   27   91 1    
    56   28   29 2    
    57   28   30 1    
    58   30   31 1    
    59   30   32 1    
    60   30   92 1    
    61   31   93 1    
    62   31   94 1    
    63   31   95 1    
    64   32   33 am   BACKBONE|DICT|INTERRES
    65   32   96 1    
    66   33   34 2    
    67   33   35 1    
    68   35   36 1    
    69   35   37 1    
    70   35   97 1    
    71   36   98 1    
    72   36   99 1    
    73   36  100 1    
    74   37   38 am   BACKBONE|DICT|INTERRES
    75   37  101 1    
    76   38   39 2    
    77   38   40 1    
    78   40   41 1    
    79   40   42 1    
    80   40  102 1    
    81   41  103 1    
    82   41  104 1    
    83   41  105 1    
    84   42   43 am   BACKBONE|DICT|INTERRES
    85   42  106 1    
    86   43   44 2    
    87   43   45 1    
    88   45   46 1    
    89   45   49 1    
    90   45  107 1    
    91   46   47 1    
    92   46  108 1    
    93   46  109 1    
    94   47   48 1    
    95   48  110 1    
    96   48  111 1    
    97   49   50 am   BACKBONE|DICT|INTERRES
    98   49  112 1    
    99   50   51 2    
   100   50   52 1    
   101   52   53 1    
   102   52   54 1    
   103   52  113 1    
   104   53  114 1    
   105   53  115 1    
   106   53  116 1    
   107   54   55 am   BACKBONE|DICT|INTERRES
   108   54  117 1    
   109   55   56 2    
   110   55   57 1    
   111   57   58 1    
   112   57   59 1    
   113   57  118 1    
   114   58  119 1    
   115   58  120 1    
   116   58  121 1    
   117   59   60 am   BACKBONE|DICT|INTERRES
   118   59  122 1    
   119   60   61 2    
   120   60   62 1    
   121   62   63 1    
   122   62   64 1    
   123   62  123 1    
   124   63  124 1    
   125   63  125 1    
   126   63  126 1    
   127   64   65 am   BACKBONE|DICT|INTERRES
   128   64  127 1    
   129   65   66 2    
@<TRIPOS>SUBSTRUCTURE
     1 UNK         1 GROUP             0       ****    0 ROOT    
