@<TRIPOS>MOLECULE
3R135
127   129    1
SMALL
USER_CHARGES


@<TRIPOS>ATOM
      1 CA        -77.9346   22.5331  -75.3410 C.3       0 UNK        -0.1998 
      2 C         -78.6532   22.6094  -74.0030 C.2       0 UNK         0.4909 
      3 O         -78.7312   21.6118  -73.2861 O.2       0 UNK        -0.5240 
      4 N         -79.2091   23.7786  -73.6726 N.am      1 UNK        -0.4739 
      5 CA        -79.9753   24.0651  -72.4564 C.3       1 UNK         0.0864 
      6 C6        -79.7755   25.5339  -71.9967 C.3       11 UNK        -0.0881 
      7 S7        -78.0342   25.9072  -71.6079 S.3       11 UNK        -0.2682 
      8 C8        -78.0894   27.7162  -71.3941 C.3       11 UNK         0.0289 
      9 C9        -77.2200   28.4338  -72.4172 C.ar      11 UNK        -0.0687 
     10 C10       -77.7846   29.3045  -73.3566 C.ar      11 UNK        -0.0823 
     11 C11       -76.9716   29.9751  -74.2780 C.ar      11 UNK        -0.0830 
     12 C12       -75.5875   29.7805  -74.2437 C.ar      11 UNK        -0.1021 
     13 C13       -75.0127   28.9174  -73.3093 C.ar      11 UNK        -0.0753 
     14 C14       -75.8348   28.2457  -72.4011 C.ar      11 UNK        -0.0933 
     15 C15       -73.5071   28.6958  -73.3036 C.3       11 UNK         0.0166 
     16 S16       -72.7419   29.0469  -71.6877 S.3       11 UNK        -0.2615 
     17 C17       -73.0392   30.8373  -71.4728 C.3       11 UNK        -0.0865 
     18 CA        -72.4896   31.7520  -72.6031 C.3       10 UNK         0.0862 
     19 C         -72.6512   33.2490  -72.2046 C.2       10 UNK         0.5551 
     20 N         -71.5777   33.9921  -71.9649 N.am      10 UNK        -0.7319 
     21 O         -73.7729   33.7404  -72.1085 O.2       10 UNK        -0.5018 
     22 N         -71.1426   31.3455  -73.0420 N.am      10 UNK        -0.4509 
     23 C         -70.5236   31.7859  -74.1454 C.2       10 UNK         0.4899 
     24 O         -70.9725   32.6567  -74.8910 O.2       10 UNK        -0.4839 
     25 CA        -69.1818   31.1168  -74.4941 C.3       9 UNK         0.0222 
     26 CB        -68.0381   31.7414  -73.6779 C.3       9 UNK        -0.1966 
     27 N         -69.1767   29.6582  -74.3184 N.am      9 UNK        -0.4218 
     28 C         -69.9798   28.8030  -74.9684 C.2       9 UNK         0.5020 
     29 O         -70.8479   29.1524  -75.7734 O.2       9 UNK        -0.5274 
     30 CA        -69.7600   27.3064  -74.6973 C.3       8 UNK         0.0270 
     31 CB        -69.9910   26.9243  -73.2220 C.3       8 UNK        -0.1976 
     32 N         -70.6609   26.5449  -75.5574 N.am      8 UNK        -0.4313 
     33 C         -70.5001   25.2857  -75.9677 C.2       8 UNK         0.5041 
     34 O         -69.5724   24.5601  -75.6027 O.2       8 UNK        -0.5577 
     35 CA        -71.5668   24.7509  -76.9434 C.3       7 UNK         0.0284 
     36 CB        -71.1445   23.4277  -77.6100 C.3       7 UNK        -0.1958 
     37 N         -72.8610   24.5562  -76.2848 N.am      7 UNK        -0.4454 
     38 C         -73.7260   25.5284  -75.9702 C.2       7 UNK         0.5089 
     39 O         -73.5187   26.7254  -76.1847 O.2       7 UNK        -0.5125 
     40 CA        -75.0281   25.0748  -75.2863 C.3       6 UNK         0.0408 
     41 CB        -74.8057   24.7975  -73.7905 C.3       6 UNK        -0.1791 
     42 N         -76.1008   26.0598  -75.4330 N.am      6 UNK        -0.4762 
     43 C         -76.7837   26.2713  -76.5655 C.2       6 UNK         0.5007 
     44 O         -76.6012   25.6368  -77.6079 O.2       6 UNK        -0.5032 
     45 CA        -77.8699   27.3595  -76.5195 C.3       5 UNK         0.0783 
     46 C46       -77.3762   28.7005  -77.1108 C.3       11 UNK        -0.0857 
     47 S47       -78.5089   30.0468  -76.6213 S.3       11 UNK        -0.2512 
     48 C48       -77.5748   30.9160  -75.3153 C.3       11 UNK         0.0225 
     49 N         -79.0721   26.8733  -77.2023 N.am      5 UNK        -0.4615 
     50 C         -79.9831   26.0954  -76.6149 C.2       4 UNK         0.5053 
     51 O         -79.9418   25.7818  -75.4246 O.2       4 UNK        -0.5105 
     52 CA        -81.1097   25.5475  -77.4940 C.3       4 UNK         0.0263 
     53 CB        -80.6414   24.2975  -78.2621 C.3       4 UNK        -0.1981 
     54 N         -82.2293   25.2077  -76.6218 N.am      4 UNK        -0.4224 
     55 C         -83.5091   25.0834  -76.9869 C.2       3 UNK         0.4895 
     56 O         -83.9018   25.2194  -78.1474 O.2       3 UNK        -0.5091 
     57 CA        -84.5189   24.7795  -75.8597 C.3       3 UNK         0.0250 
     58 CB        -85.8560   24.2149  -76.3873 C.3       3 UNK        -0.1996 
     59 N         -83.9766   23.9279  -74.7902 N.am      3 UNK        -0.4254 
     60 C         -83.5416   22.6631  -74.8919 C.2       2 UNK         0.5004 
     61 O         -83.5015   22.0279  -75.9471 O.2       2 UNK        -0.5226 
     62 CA        -83.0485   22.0121  -73.5841 C.3       2 UNK         0.0269 
     63 CB        -82.9836   20.4764  -73.6814 C.3       2 UNK        -0.1926 
     64 N         -81.7275   22.5125  -73.2009 N.am      2 UNK        -0.4687 
     65 C         -81.4638   23.7213  -72.6869 C.2       1 UNK         0.5165 
     66 O         -82.3447   24.5465  -72.4334 O.2       1 UNK        -0.5079 
     67 H67       -77.9467   23.4896  -75.8633 H         1 UNK         0.0900 
     68 H68       -78.4114   21.7918  -75.9815 H         1 UNK         0.0900 
     69 H69       -76.8964   22.2389  -75.1918 H         1 UNK         0.0900 
     70 H70       -79.2083   24.5451  -74.3431 H         1 UNK         0.2959 
     71 H71       -79.6273   23.4149  -71.6506 H         1 UNK         0.1079 
     72 H72       -80.1224   26.2272  -72.7655 H         1 UNK         0.0837 
     73 H73       -80.3671   25.7405  -71.1027 H         1 UNK         0.0837 
     74 H74       -79.1193   28.0730  -71.4420 H         1 UNK         0.0685 
     75 H75       -77.7314   27.9601  -70.3929 H         1 UNK         0.0685 
     76 H76       -78.8551   29.4581  -73.3779 H         1 UNK         0.1434 
     77 H77       -74.9550   30.2952  -74.9544 H         1 UNK         0.1329 
     78 H78       -75.3946   27.5764  -71.6743 H         1 UNK         0.1335 
     79 H79       -73.3043   27.6585  -73.5660 H         1 UNK         0.0680 
     80 H80       -73.0195   29.2954  -74.0727 H         1 UNK         0.0680 
     81 H81       -72.5954   31.1174  -70.5155 H         1 UNK         0.1032 
     82 H82       -74.1142   30.9911  -71.3572 H         1 UNK         0.1032 
     83 H83       -73.1387   31.6159  -73.4698 H         1 UNK         0.0461 
     84 H84       -70.6561   33.5947  -72.0478 H         1 UNK         0.3453 
     85 H85       -71.6916   34.9602  -71.7089 H         1 UNK         0.3453 
     86 H86       -70.7050   30.6182  -72.4963 H         1 UNK         0.2984 
     87 H87       -68.9859   31.3141  -75.5502 H         1 UNK         0.0554 
     88 H88       -67.0679   31.3587  -73.9953 H         1 UNK         0.0847 
     89 H89       -68.1444   31.5440  -72.6105 H         1 UNK         0.0847 
     90 H90       -68.0126   32.8245  -73.8076 H         1 UNK         0.0847 
     91 H91       -68.4859   29.2827  -73.6842 H         1 UNK         0.3141 
     92 H92       -68.7287   27.0757  -74.9725 H         1 UNK         0.0743 
     93 H93       -71.0350   27.0399  -72.9366 H         1 UNK         0.0784 
     94 H94       -69.7171   25.8851  -73.0397 H         1 UNK         0.0784 
     95 H95       -69.3935   27.5338  -72.5438 H         1 UNK         0.0784 
     96 H96       -71.4551   27.0778  -75.9069 H         1 UNK         0.3213 
     97 H97       -71.6857   25.4943  -77.7353 H         1 UNK         0.0855 
     98 H98       -70.1895   23.5388  -78.1254 H         1 UNK         0.0814 
     99 H99       -71.8750   23.1061  -78.3525 H         1 UNK         0.0814 
    100 H100      -71.0295   22.6242  -76.8814 H         1 UNK         0.0814 
    101 H101      -73.0947   23.6051  -76.0384 H         1 UNK         0.3105 
    102 H102      -75.3503   24.1459  -75.7608 H         1 UNK         0.0547 
    103 H103      -74.4976   25.6916  -73.2504 H         1 UNK         0.0837 
    104 H104      -74.0319   24.0442  -73.6382 H         1 UNK         0.0837 
    105 H105      -75.7150   24.4230  -73.3194 H         1 UNK         0.0837 
    106 H106      -76.2716   26.6563  -74.6349 H         1 UNK         0.3020 
    107 H107      -78.1142   27.5243  -75.4677 H         1 UNK         0.1245 
    108 H108      -77.3304   28.6520  -78.2001 H         1 UNK         0.0781 
    109 H109      -76.3628   28.9365  -76.7827 H         1 UNK         0.0781 
    110 H110      -78.2397   31.6228  -74.8169 H         1 UNK         0.0836 
    111 H111      -76.7958   31.5174  -75.7866 H         1 UNK         0.0836 
    112 H112      -79.1350   27.0605  -78.1921 H         1 UNK         0.3022 
    113 H113      -81.4188   26.3256  -78.1953 H         1 UNK         0.0747 
    114 H114      -81.4292   23.9088  -78.9076 H         1 UNK         0.0793 
    115 H115      -79.7844   24.5234  -78.8980 H         1 UNK         0.0793 
    116 H116      -80.3432   23.4981  -77.5822 H         1 UNK         0.0793 
    117 H117      -81.9767   25.1262  -75.6444 H         1 UNK         0.3047 
    118 H118      -84.7357   25.7419  -75.3938 H         1 UNK         0.0822 
    119 H119      -86.5586   24.0322  -75.5742 H         1 UNK         0.0807 
    120 H120      -85.7152   23.2777  -76.9267 H         1 UNK         0.0807 
    121 H121      -86.3338   24.9151  -77.0737 H         1 UNK         0.0807 
    122 H122      -83.8745   24.3728  -73.8837 H         1 UNK         0.2946 
    123 H123      -83.7641   22.2653  -72.7980 H         1 UNK         0.1144 
    124 H124      -83.9513   20.0623  -73.9678 H         1 UNK         0.0793 
    125 H125      -82.7120   20.0299  -72.7247 H         1 UNK         0.0793 
    126 H126      -82.2548   20.1471  -74.4233 H         1 UNK         0.0793 
    127 H127      -80.9377   21.9084  -73.3940 H         1 UNK         0.2896 
@<TRIPOS>BOND
     1    1    2 1    
     2    1   67 1    
     3    1   68 1    
     4    1   69 1    
     5    2    3 2    
     6    2    4 am   BACKBONE|DICT|INTERRES
     7    4    5 1    
     8    4   70 1    
     9    5    6 1    
    10    5   65 1    
    11    5   71 1    
    12    6    7 1    
    13    6   72 1    
    14    6   73 1    
    15    7    8 1    
    16    8    9 1    
    17    8   74 1    
    18    8   75 1    
    19    9   10 ar   
    20    9   14 ar   
    21   10   11 ar   
    22   10   76 1    
    23   11   12 ar   
    24   11   48 1    
    25   12   13 ar   
    26   12   77 1    
    27   13   14 ar   
    28   13   15 1    
    29   14   78 1    
    30   15   16 1    
    31   15   79 1    
    32   15   80 1    
    33   16   17 1    
    34   17   18 1    
    35   17   81 1    
    36   17   82 1    
    37   18   19 1    
    38   18   22 1    
    39   18   83 1    
    40   19   20 am   BACKBONE|DICT|INTERRES
    41   19   21 2    
    42   20   84 1    
    43   20   85 1    
    44   22   23 am   BACKBONE|DICT|INTERRES
    45   22   86 1    
    46   23   24 2    
    47   23   25 1    
    48   25   26 1    
    49   25   27 1    
    50   25   87 1    
    51   26   88 1    
    52   26   89 1    
    53   26   90 1    
    54   27   28 am   BACKBONE|DICT|INTERRES
    55   27   91 1    
    56   28   29 2    
    57   28   30 1    
    58   30   31 1    
    59   30   32 1    
    60   30   92 1    
    61   31   93 1    
    62   31   94 1    
    63   31   95 1    
    64   32   33 am   BACKBONE|DICT|INTERRES
    65   32   96 1    
    66   33   34 2    
    67   33   35 1    
    68   35   36 1    
    69   35   37 1    
    70   35   97 1    
    71   36   98 1    
    72   36   99 1    
    73   36  100 1    
    74   37   38 am   BACKBONE|DICT|INTERRES
    75   37  101 1    
    76   38   39 2    
    77   38   40 1    
    78   40   41 1    
    79   40   42 1    
    80   40  102 1    
    81   41  103 1    
    82   41  104 1    
    83   41  105 1    
    84   42   43 am   BACKBONE|DICT|INTERRES
    85   42  106 1    
    86   43   44 2    
    87   43   45 1    
    88   45   46 1    
    89   45   49 1    
    90   45  107 1    
    91   46   47 1    
    92   46  108 1    
    93   46  109 1    
    94   47   48 1    
    95   48  110 1    
    96   48  111 1    
    97   49   50 am   BACKBONE|DICT|INTERRES
    98   49  112 1    
    99   50   51 2    
   100   50   52 1    
   101   52   53 1    
   102   52   54 1    
   103   52  113 1    
   104   53  114 1    
   105   53  115 1    
   106   53  116 1    
   107   54   55 am   BACKBONE|DICT|INTERRES
   108   54  117 1    
   109   55   56 2    
   110   55   57 1    
   111   57   58 1    
   112   57   59 1    
   113   57  118 1    
   114   58  119 1    
   115   58  120 1    
   116   58  121 1    
   117   59   60 am   BACKBONE|DICT|INTERRES
   118   59  122 1    
   119   60   61 2    
   120   60   62 1    
   121   62   63 1    
   122   62   64 1    
   123   62  123 1    
   124   63  124 1    
   125   63  125 1    
   126   63  126 1    
   127   64   65 am   BACKBONE|DICT|INTERRES
   128   64  127 1    
   129   65   66 2    
@<TRIPOS>SUBSTRUCTURE
     1 UNK         1 GROUP             0       ****    0 ROOT    
