@<TRIPOS>MOLECULE
3R135
127   129    1
SMALL
USER_CHARGES


@<TRIPOS>ATOM
      1 CA        -81.0010   22.0084  -69.9614 C.3       0 UNK        -0.1998 
      2 C         -81.7638   22.9929  -70.8352 C.2       0 UNK         0.4909 
      3 O         -82.9517   22.7917  -71.0922 O.2       0 UNK        -0.5240 
      4 N         -81.0921   24.0608  -71.2826 N.am      1 UNK        -0.4739 
      5 CA        -81.6437   25.0827  -72.1804 C.3       1 UNK         0.0864 
      6 C6        -80.7734   26.3649  -72.2137 C.3       11 UNK        -0.0881 
      7 S7        -80.4819   27.0884  -70.5623 S.3       11 UNK        -0.2682 
      8 C8        -78.6603   27.2667  -70.5485 C.3       11 UNK         0.0289 
      9 C9        -78.1027   28.4780  -71.3043 C.ar      11 UNK        -0.0687 
     10 C10       -78.8266   29.1548  -72.2946 C.ar      11 UNK        -0.0823 
     11 C11       -78.2732   30.2399  -72.9775 C.ar      11 UNK        -0.0830 
     12 C12       -76.9835   30.6697  -72.6563 C.ar      11 UNK        -0.1021 
     13 C13       -76.2500   30.0173  -71.6619 C.ar      11 UNK        -0.0753 
     14 C14       -76.8106   28.9203  -70.9992 C.ar      11 UNK        -0.0933 
     15 C15       -74.8651   30.5151  -71.2792 C.3       11 UNK         0.0166 
     16 S16       -73.5522   29.5519  -72.0882 S.3       11 UNK        -0.2615 
     17 C17       -72.0710   30.3341  -71.3608 C.3       11 UNK        -0.0865 
     18 CA        -71.1589   31.0054  -72.4209 C.3       10 UNK         0.0862 
     19 C         -70.0772   31.8851  -71.7244 C.2       10 UNK         0.5551 
     20 N         -68.7975   31.5345  -71.7730 N.am      10 UNK        -0.7319 
     21 O         -70.4104   32.9067  -71.1290 O.2       10 UNK        -0.5018 
     22 N         -70.6335   30.0161  -73.3785 N.am      10 UNK        -0.4509 
     23 C         -70.0361   30.3053  -74.5429 C.2       10 UNK         0.4899 
     24 O         -69.8985   31.4482  -74.9795 O.2       10 UNK        -0.4839 
     25 CA        -69.4784   29.1223  -75.3543 C.3       9 UNK         0.0222 
     26 CB        -67.9835   28.9261  -75.0514 C.3       9 UNK        -0.1966 
     27 N         -70.1928   27.8672  -75.0994 N.am      9 UNK        -0.4218 
     28 C         -71.3615   27.5418  -75.6655 C.2       9 UNK         0.5020 
     29 O         -71.9458   28.2410  -76.4967 O.2       9 UNK        -0.5274 
     30 CA        -71.9854   26.2164  -75.2193 C.3       8 UNK         0.0270 
     31 CB        -72.8505   26.4135  -73.9617 C.3       8 UNK        -0.1976 
     32 N         -72.7959   25.6929  -76.3142 N.am      8 UNK        -0.4313 
     33 C         -73.1319   24.4117  -76.4937 C.2       8 UNK         0.5041 
     34 O         -72.8191   23.5169  -75.7052 O.2       8 UNK        -0.5577 
     35 CA        -73.9306   24.0611  -77.7670 C.3       7 UNK         0.0284 
     36 CB        -74.5592   22.6560  -77.7011 C.3       7 UNK        -0.1958 
     37 N         -74.9849   25.0320  -78.0701 N.am      7 UNK        -0.4454 
     38 C         -74.8140   26.1902  -78.7190 C.2       7 UNK         0.5089 
     39 O         -73.7188   26.5988  -79.1042 O.2       7 UNK        -0.5125 
     40 CA        -76.0705   27.0403  -78.9597 C.3       6 UNK         0.0408 
     41 CB        -76.8791   26.4949  -80.1479 C.3       6 UNK        -0.1791 
     42 N         -76.9239   27.1034  -77.7726 N.am      6 UNK        -0.4762 
     43 C         -76.6814   27.8800  -76.7054 C.2       6 UNK         0.5007 
     44 O         -75.7169   28.6402  -76.6223 O.2       6 UNK        -0.5032 
     45 CA        -77.6819   27.7785  -75.5320 C.3       5 UNK         0.0783 
     46 C46       -78.9326   28.6668  -75.7599 C.3       11 UNK        -0.0857 
     47 S47       -78.5577   30.4559  -75.7305 S.3       11 UNK        -0.2512 
     48 C48       -79.0784   30.9483  -74.0570 C.3       11 UNK         0.0225 
     49 N         -78.0535   26.3809  -75.2864 N.am      5 UNK        -0.4615 
     50 C         -77.2132   25.4704  -74.7685 C.2       4 UNK         0.5053 
     51 O         -76.1155   25.7574  -74.2966 O.2       4 UNK        -0.5105 
     52 CA        -77.6337   23.9879  -74.7959 C.3       4 UNK         0.0263 
     53 CB        -77.9758   23.4887  -73.3837 C.3       4 UNK        -0.1981 
     54 N         -78.7417   23.6999  -75.7136 N.am      4 UNK        -0.4224 
     55 C         -78.6444   23.7793  -77.0506 C.2       3 UNK         0.4895 
     56 O         -77.6007   24.0690  -77.6336 O.2       3 UNK        -0.5091 
     57 CA        -79.9142   23.5545  -77.8914 C.3       3 UNK         0.0250 
     58 CB        -79.9406   22.1201  -78.4416 C.3       3 UNK        -0.1996 
     59 N         -81.1695   23.8265  -77.1868 N.am      3 UNK        -0.4254 
     60 C         -81.5162   24.9955  -76.6299 C.2       2 UNK         0.5004 
     61 O         -80.8024   26.0008  -76.6496 O.2       2 UNK        -0.5226 
     62 CA        -82.8490   25.0381  -75.8550 C.3       2 UNK         0.0269 
     63 CB        -83.7498   23.7989  -76.0663 C.3       2 UNK        -0.1926 
     64 N         -82.6206   25.2626  -74.4212 N.am      2 UNK        -0.4687 
     65 C         -81.8246   24.5418  -73.6152 C.2       1 UNK         0.5165 
     66 O         -81.2033   23.5398  -73.9842 O.2       1 UNK        -0.5079 
     67 H67       -80.9972   21.0221  -70.4246 H         1 UNK         0.0900 
     68 H68       -81.4773   21.9254  -68.9849 H         1 UNK         0.0900 
     69 H69       -79.9662   22.3149  -69.8092 H         1 UNK         0.0900 
     70 H70       -80.1224   24.1785  -71.0308 H         1 UNK         0.2959 
     71 H71       -82.6340   25.3503  -71.8040 H         1 UNK         0.1079 
     72 H72       -79.8159   26.1721  -72.7009 H         1 UNK         0.0837 
     73 H73       -81.2655   27.1284  -72.8185 H         1 UNK         0.0837 
     74 H74       -78.3522   27.3343  -69.5039 H         1 UNK         0.0685 
     75 H75       -78.2015   26.3585  -70.9418 H         1 UNK         0.0685 
     76 H76       -79.8277   28.8489  -72.5498 H         1 UNK         0.1434 
     77 H77       -76.5535   31.5134  -73.1791 H         1 UNK         0.1329 
     78 H78       -76.2363   28.4126  -70.2359 H         1 UNK         0.1335 
     79 H79       -74.7534   31.5679  -71.5437 H         1 UNK         0.0680 
     80 H80       -74.7444   30.4540  -70.1963 H         1 UNK         0.0680 
     81 H81       -72.3887   31.0649  -70.6142 H         1 UNK         0.1032 
     82 H82       -71.5156   29.5741  -70.8082 H         1 UNK         0.1032 
     83 H83       -71.7778   31.6998  -72.9928 H         1 UNK         0.0461 
     84 H84       -68.5150   30.6992  -72.2587 H         1 UNK         0.3453 
     85 H85       -68.1086   32.1143  -71.3202 H         1 UNK         0.3453 
     86 H86       -70.7192   29.0495  -73.1058 H         1 UNK         0.2984 
     87 H87       -69.5748   29.3740  -76.4129 H         1 UNK         0.0554 
     88 H88       -67.8102   28.6571  -74.0088 H         1 UNK         0.0847 
     89 H89       -67.4221   29.8405  -75.2493 H         1 UNK         0.0847 
     90 H90       -67.5518   28.1438  -75.6761 H         1 UNK         0.0847 
     91 H91       -69.7731   27.2270  -74.4397 H         1 UNK         0.3141 
     92 H92       -71.1823   25.5084  -75.0032 H         1 UNK         0.0743 
     93 H93       -73.6625   27.1197  -74.1433 H         1 UNK         0.0784 
     94 H94       -73.2972   25.4751  -73.6325 H         1 UNK         0.0784 
     95 H95       -72.2599   26.7998  -73.1306 H         1 UNK         0.0784 
     96 H96       -73.0385   26.3773  -77.0254 H         1 UNK         0.3213 
     97 H97       -73.2144   24.0587  -78.5915 H         1 UNK         0.0855 
     98 H98       -75.2559   22.5664  -76.8674 H         1 UNK         0.0814 
     99 H99       -73.7951   21.8881  -77.5734 H         1 UNK         0.0814 
    100 H100      -75.1026   22.4204  -78.6163 H         1 UNK         0.0814 
    101 H101      -75.9320   24.7633  -77.8068 H         1 UNK         0.3105 
    102 H102      -75.7481   28.0531  -79.2114 H         1 UNK         0.0547 
    103 H103      -76.2673   26.4598  -81.0503 H         1 UNK         0.0837 
    104 H104      -77.2447   25.4839  -79.9643 H         1 UNK         0.0837 
    105 H105      -77.7393   27.1278  -80.3659 H         1 UNK         0.0837 
    106 H106      -77.7052   26.4634  -77.7403 H         1 UNK         0.3020 
    107 H107      -77.1655   28.1416  -74.6395 H         1 UNK         0.1245 
    108 H108      -79.6890   28.4529  -75.0040 H         1 UNK         0.0781 
    109 H109      -79.4040   28.4302  -76.7157 H         1 UNK         0.0781 
    110 H110      -80.1457   30.7544  -73.9387 H         1 UNK         0.0836 
    111 H111      -78.9545   32.0273  -73.9527 H         1 UNK         0.0836 
    112 H112      -78.9483   26.0805  -75.6578 H         1 UNK         0.3022 
    113 H113      -76.7668   23.4218  -75.1425 H         1 UNK         0.0747 
    114 H114      -78.2628   22.4370  -73.3896 H         1 UNK         0.0793 
    115 H115      -77.1170   23.5877  -72.7184 H         1 UNK         0.0793 
    116 H116      -78.7915   24.0571  -72.9430 H         1 UNK         0.0793 
    117 H117      -79.6412   23.4875  -75.2915 H         1 UNK         0.3047 
    118 H118      -79.8615   24.2438  -78.7368 H         1 UNK         0.0822 
    119 H119      -80.7756   21.9718  -79.1267 H         1 UNK         0.0807 
    120 H120      -80.0247   21.3827  -77.6423 H         1 UNK         0.0807 
    121 H121      -79.0272   21.8975  -78.9955 H         1 UNK         0.0807 
    122 H122      -81.8034   23.0478  -77.0796 H         1 UNK         0.2946 
    123 H123      -83.3869   25.9090  -76.2336 H         1 UNK         0.1144 
    124 H124      -84.7096   23.9288  -75.5662 H         1 UNK         0.0793 
    125 H125      -83.3012   22.8854  -75.6739 H         1 UNK         0.0793 
    126 H126      -83.9646   23.6406  -77.1242 H         1 UNK         0.0793 
    127 H127      -83.0624   26.0889  -74.0420 H         1 UNK         0.2896 
@<TRIPOS>BOND
     1    1    2 1    
     2    1   67 1    
     3    1   68 1    
     4    1   69 1    
     5    2    3 2    
     6    2    4 am   BACKBONE|DICT|INTERRES
     7    4    5 1    
     8    4   70 1    
     9    5    6 1    
    10    5   65 1    
    11    5   71 1    
    12    6    7 1    
    13    6   72 1    
    14    6   73 1    
    15    7    8 1    
    16    8    9 1    
    17    8   74 1    
    18    8   75 1    
    19    9   10 ar   
    20    9   14 ar   
    21   10   11 ar   
    22   10   76 1    
    23   11   12 ar   
    24   11   48 1    
    25   12   13 ar   
    26   12   77 1    
    27   13   14 ar   
    28   13   15 1    
    29   14   78 1    
    30   15   16 1    
    31   15   79 1    
    32   15   80 1    
    33   16   17 1    
    34   17   18 1    
    35   17   81 1    
    36   17   82 1    
    37   18   19 1    
    38   18   22 1    
    39   18   83 1    
    40   19   20 am   BACKBONE|DICT|INTERRES
    41   19   21 2    
    42   20   84 1    
    43   20   85 1    
    44   22   23 am   BACKBONE|DICT|INTERRES
    45   22   86 1    
    46   23   24 2    
    47   23   25 1    
    48   25   26 1    
    49   25   27 1    
    50   25   87 1    
    51   26   88 1    
    52   26   89 1    
    53   26   90 1    
    54   27   28 am   BACKBONE|DICT|INTERRES
    55   27   91 1    
    56   28   29 2    
    57   28   30 1    
    58   30   31 1    
    59   30   32 1    
    60   30   92 1    
    61   31   93 1    
    62   31   94 1    
    63   31   95 1    
    64   32   33 am   BACKBONE|DICT|INTERRES
    65   32   96 1    
    66   33   34 2    
    67   33   35 1    
    68   35   36 1    
    69   35   37 1    
    70   35   97 1    
    71   36   98 1    
    72   36   99 1    
    73   36  100 1    
    74   37   38 am   BACKBONE|DICT|INTERRES
    75   37  101 1    
    76   38   39 2    
    77   38   40 1    
    78   40   41 1    
    79   40   42 1    
    80   40  102 1    
    81   41  103 1    
    82   41  104 1    
    83   41  105 1    
    84   42   43 am   BACKBONE|DICT|INTERRES
    85   42  106 1    
    86   43   44 2    
    87   43   45 1    
    88   45   46 1    
    89   45   49 1    
    90   45  107 1    
    91   46   47 1    
    92   46  108 1    
    93   46  109 1    
    94   47   48 1    
    95   48  110 1    
    96   48  111 1    
    97   49   50 am   BACKBONE|DICT|INTERRES
    98   49  112 1    
    99   50   51 2    
   100   50   52 1    
   101   52   53 1    
   102   52   54 1    
   103   52  113 1    
   104   53  114 1    
   105   53  115 1    
   106   53  116 1    
   107   54   55 am   BACKBONE|DICT|INTERRES
   108   54  117 1    
   109   55   56 2    
   110   55   57 1    
   111   57   58 1    
   112   57   59 1    
   113   57  118 1    
   114   58  119 1    
   115   58  120 1    
   116   58  121 1    
   117   59   60 am   BACKBONE|DICT|INTERRES
   118   59  122 1    
   119   60   61 2    
   120   60   62 1    
   121   62   63 1    
   122   62   64 1    
   123   62  123 1    
   124   63  124 1    
   125   63  125 1    
   126   63  126 1    
   127   64   65 am   BACKBONE|DICT|INTERRES
   128   64  127 1    
   129   65   66 2    
@<TRIPOS>SUBSTRUCTURE
     1 UNK         1 GROUP             0       ****    0 ROOT    
