@<TRIPOS>MOLECULE
3R135
127   129    1
SMALL
USER_CHARGES


@<TRIPOS>ATOM
      1 CA        -78.8881   26.0031  -69.7540 C.3       0 UNK        -0.1998 
      2 C         -80.3721   25.8686  -70.0523 C.2       0 UNK         0.4909 
      3 O         -80.9839   24.8713  -69.6691 O.2       0 UNK        -0.5240 
      4 N         -80.9596   26.8722  -70.7183 N.am      1 UNK        -0.4739 
      5 CA        -82.4015   26.9469  -71.0005 C.3       1 UNK         0.0864 
      6 C6        -82.8758   28.3871  -71.3253 C.3       11 UNK        -0.0881 
      7 S7        -82.3074   29.6129  -70.0907 S.3       11 UNK        -0.2682 
      8 C8        -81.3310   30.7839  -71.0930 C.3       11 UNK         0.0289 
      9 C9        -80.1953   30.1098  -71.8522 C.ar      11 UNK        -0.0687 
     10 C10       -80.3157   29.8861  -73.2280 C.ar      11 UNK        -0.0823 
     11 C11       -79.2923   29.2539  -73.9361 C.ar      11 UNK        -0.0830 
     12 C12       -78.1406   28.8511  -73.2580 C.ar      11 UNK        -0.1021 
     13 C13       -77.9884   29.0959  -71.8912 C.ar      11 UNK        -0.0753 
     14 C14       -79.0241   29.7232  -71.1893 C.ar      11 UNK        -0.0933 
     15 C15       -76.7096   28.6617  -71.1861 C.3       11 UNK         0.0166 
     16 S16       -75.2284   29.3955  -71.9521 S.3       11 UNK        -0.2615 
     17 C17       -73.9921   28.0922  -71.6288 C.3       11 UNK        -0.0865 
     18 CA        -72.6304   28.3800  -72.3115 C.3       10 UNK         0.0862 
     19 C         -71.5452   27.3717  -71.8412 C.2       10 UNK         0.5551 
     20 N         -70.9735   26.5355  -72.6980 N.am      10 UNK        -0.7319 
     21 O         -71.1996   27.3591  -70.6621 O.2       10 UNK        -0.5018 
     22 N         -72.7603   28.4830  -73.7765 N.am      10 UNK        -0.4509 
     23 C         -72.2304   29.4749  -74.5031 C.2       10 UNK         0.4899 
     24 O         -71.5550   30.3923  -74.0309 O.2       10 UNK        -0.4839 
     25 CA        -72.5134   29.4334  -76.0154 C.3       9 UNK         0.0222 
     26 CB        -72.2381   30.7789  -76.7193 C.3       9 UNK        -0.1966 
     27 N         -71.8051   28.3413  -76.6888 N.am      9 UNK        -0.4218 
     28 C         -70.4819   28.1138  -76.7180 C.2       9 UNK         0.5020 
     29 O         -69.6426   28.8585  -76.2087 O.2       9 UNK        -0.5274 
     30 CA        -70.0085   26.8465  -77.4641 C.3       8 UNK         0.0270 
     31 CB        -68.6722   26.3044  -76.9122 C.3       8 UNK        -0.1976 
     32 N         -71.0060   25.7691  -77.5278 N.am      8 UNK        -0.4313 
     33 C         -71.5992   25.1421  -76.5025 C.2       8 UNK         0.5041 
     34 O         -71.4122   25.4360  -75.3211 O.2       8 UNK        -0.5577 
     35 CA        -72.5944   24.0264  -76.8762 C.3       7 UNK         0.0284 
     36 CB        -73.1431   23.2915  -75.6394 C.3       7 UNK        -0.1958 
     37 N         -73.7160   24.5505  -77.6597 N.am      7 UNK        -0.4454 
     38 C         -73.6767   24.8772  -78.9591 C.2       7 UNK         0.5089 
     39 O         -72.6748   24.7415  -79.6629 O.2       7 UNK        -0.5125 
     40 CA        -74.9479   25.4936  -79.5655 C.3       6 UNK         0.0408 
     41 CB        -75.7977   24.4119  -80.2506 C.3       6 UNK        -0.1791 
     42 N         -75.7541   26.1954  -78.5624 N.am      6 UNK        -0.4762 
     43 C         -75.4635   27.4167  -78.0858 C.2       6 UNK         0.5007 
     44 O         -74.5083   28.0855  -78.4802 O.2       6 UNK        -0.5032 
     45 CA        -76.3604   27.9777  -76.9613 C.3       5 UNK         0.0783 
     46 C46       -77.5471   28.7835  -77.5489 C.3       11 UNK        -0.0857 
     47 S47       -78.2056   29.9961  -76.3579 S.3       11 UNK        -0.2512 
     48 C48       -79.4198   29.0067  -75.4311 C.3       11 UNK         0.0225 
     49 N         -76.8089   26.9149  -76.0570 N.am      5 UNK        -0.4615 
     50 C         -76.0172   26.2296  -75.2219 C.2       4 UNK         0.5053 
     51 O         -74.8405   26.5261  -75.0099 O.2       4 UNK        -0.5105 
     52 CA        -76.6244   24.9885  -74.5298 C.3       4 UNK         0.0263 
     53 CB        -76.8190   25.2364  -73.0283 C.3       4 UNK        -0.1981 
     54 N         -77.8954   24.5071  -75.0870 N.am      4 UNK        -0.4224 
     55 C         -78.1069   24.0832  -76.3406 C.2       3 UNK         0.4895 
     56 O         -77.2313   24.0930  -77.2054 O.2       3 UNK        -0.5091 
     57 CA        -79.5188   23.5834  -76.7126 C.3       3 UNK         0.0250 
     58 CB        -79.4534   22.1554  -77.2816 C.3       3 UNK        -0.1996 
     59 N         -80.5051   23.6116  -75.6233 N.am      3 UNK        -0.4254 
     60 C         -81.0588   24.7094  -75.0889 C.2       2 UNK         0.5004 
     61 O         -80.7446   25.8523  -75.4214 O.2       2 UNK        -0.5226 
     62 CA        -82.1170   24.5087  -73.9910 C.3       2 UNK         0.0269 
     63 CB        -82.1328   23.0897  -73.3769 C.3       2 UNK        -0.1926 
     64 N         -81.9127   25.5054  -72.9407 N.am      2 UNK        -0.4687 
     65 C         -82.8508   25.9552  -72.0968 C.2       1 UNK         0.5165 
     66 O         -84.0319   25.6071  -72.1464 O.2       1 UNK        -0.5079 
     67 H67       -78.5789   27.0466  -69.7467 H         1 UNK         0.0900 
     68 H68       -78.3008   25.4653  -70.4961 H         1 UNK         0.0900 
     69 H69       -78.6612   25.5850  -68.7735 H         1 UNK         0.0900 
     70 H70       -80.4202   27.6808  -70.9980 H         1 UNK         0.2959 
     71 H71       -82.9196   26.6400  -70.0887 H         1 UNK         0.1079 
     72 H72       -82.5593   28.6826  -72.3250 H         1 UNK         0.0837 
     73 H73       -83.9668   28.4220  -71.3444 H         1 UNK         0.0837 
     74 H74       -81.9998   31.3027  -71.7817 H         1 UNK         0.0685 
     75 H75       -80.9199   31.5513  -70.4356 H         1 UNK         0.0685 
     76 H76       -81.2105   30.2006  -73.7478 H         1 UNK         0.1434 
     77 H77       -77.3395   28.3752  -73.8033 H         1 UNK         0.1329 
     78 H78       -78.9243   29.9094  -70.1285 H         1 UNK         0.1335 
     79 H79       -76.6441   27.5749  -71.2227 H         1 UNK         0.0680 
     80 H80       -76.7306   28.9357  -70.1303 H         1 UNK         0.0680 
     81 H81       -74.3803   27.1344  -71.9739 H         1 UNK         0.1032 
     82 H82       -73.8728   28.0063  -70.5467 H         1 UNK         0.1032 
     83 H83       -72.2972   29.3423  -71.9183 H         1 UNK         0.0461 
     84 H84       -70.2685   25.9028  -72.3572 H         1 UNK         0.3453 
     85 H85       -71.2637   26.4677  -73.6693 H         1 UNK         0.3453 
     86 H86       -73.2993   27.7544  -74.2333 H         1 UNK         0.2984 
     87 H87       -73.5761   29.2257  -76.1236 H         1 UNK         0.0554 
     88 H88       -72.5251   30.7399  -77.7701 H         1 UNK         0.0847 
     89 H89       -71.1855   31.0593  -76.6689 H         1 UNK         0.0847 
     90 H90       -72.8106   31.5836  -76.2565 H         1 UNK         0.0847 
     91 H91       -72.4000   27.6646  -77.1468 H         1 UNK         0.3141 
     92 H92       -69.8363   27.1573  -78.4955 H         1 UNK         0.0743 
     93 H93       -68.7536   26.0312  -75.8594 H         1 UNK         0.0784 
     94 H94       -68.3428   25.4234  -77.4630 H         1 UNK         0.0784 
     95 H95       -67.8799   27.0494  -76.9947 H         1 UNK         0.0784 
     96 H96       -71.2868   25.4752  -78.4604 H         1 UNK         0.3213 
     97 H97       -72.0552   23.2961  -77.4837 H         1 UNK         0.0855 
     98 H98       -73.6177   23.9795  -74.9399 H         1 UNK         0.0814 
     99 H99       -72.3376   22.7926  -75.0991 H         1 UNK         0.0814 
    100 H100      -73.8714   22.5285  -75.9145 H         1 UNK         0.0814 
    101 H101      -74.5759   24.7238  -77.1598 H         1 UNK         0.3105 
    102 H102      -74.6391   26.2106  -80.3293 H         1 UNK         0.0547 
    103 H103      -75.2366   23.9276  -81.0508 H         1 UNK         0.0837 
    104 H104      -76.1043   23.6316  -79.5534 H         1 UNK         0.0837 
    105 H105      -76.6971   24.8359  -80.6970 H         1 UNK         0.0837 
    106 H106      -76.5104   25.6611  -78.1440 H         1 UNK         0.3020 
    107 H107      -75.7397   28.6623  -76.3813 H         1 UNK         0.1245 
    108 H108      -78.3439   28.1262  -77.9022 H         1 UNK         0.0781 
    109 H109      -77.2293   29.3604  -78.4202 H         1 UNK         0.0781 
    110 H110      -79.2760   27.9457  -75.6233 H         1 UNK         0.0836 
    111 H111      -80.4227   29.2460  -75.7877 H         1 UNK         0.0836 
    112 H112      -77.7621   26.6024  -76.1639 H         1 UNK         0.3022 
    113 H113      -75.9038   24.1785  -74.6468 H         1 UNK         0.0747 
    114 H114      -77.1495   24.3317  -72.5177 H         1 UNK         0.0793 
    115 H115      -75.8849   25.5406  -72.5583 H         1 UNK         0.0793 
    116 H116      -77.5578   26.0160  -72.8438 H         1 UNK         0.0793 
    117 H117      -78.6803   24.4788  -74.4541 H         1 UNK         0.3047 
    118 H118      -79.8801   24.2442  -77.5034 H         1 UNK         0.0822 
    119 H119      -80.4311   21.8202  -77.6286 H         1 UNK         0.0807 
    120 H120      -79.0962   21.4413  -76.5386 H         1 UNK         0.0807 
    121 H121      -78.7767   22.1015  -78.1359 H         1 UNK         0.0807 
    122 H122      -80.8048   22.7130  -75.2726 H         1 UNK         0.2946 
    123 H123      -83.0839   24.6935  -74.4645 H         1 UNK         0.1144 
    124 H124      -82.3688   22.3305  -74.1234 H         1 UNK         0.0793 
    125 H125      -82.8932   23.0045  -72.6002 H         1 UNK         0.0793 
    126 H126      -81.1742   22.8337  -72.9234 H         1 UNK         0.0793 
    127 H127      -80.9831   25.8966  -72.8774 H         1 UNK         0.2896 
@<TRIPOS>BOND
     1    1    2 1    
     2    1   67 1    
     3    1   68 1    
     4    1   69 1    
     5    2    3 2    
     6    2    4 am   BACKBONE|DICT|INTERRES
     7    4    5 1    
     8    4   70 1    
     9    5    6 1    
    10    5   65 1    
    11    5   71 1    
    12    6    7 1    
    13    6   72 1    
    14    6   73 1    
    15    7    8 1    
    16    8    9 1    
    17    8   74 1    
    18    8   75 1    
    19    9   10 ar   
    20    9   14 ar   
    21   10   11 ar   
    22   10   76 1    
    23   11   12 ar   
    24   11   48 1    
    25   12   13 ar   
    26   12   77 1    
    27   13   14 ar   
    28   13   15 1    
    29   14   78 1    
    30   15   16 1    
    31   15   79 1    
    32   15   80 1    
    33   16   17 1    
    34   17   18 1    
    35   17   81 1    
    36   17   82 1    
    37   18   19 1    
    38   18   22 1    
    39   18   83 1    
    40   19   20 am   BACKBONE|DICT|INTERRES
    41   19   21 2    
    42   20   84 1    
    43   20   85 1    
    44   22   23 am   BACKBONE|DICT|INTERRES
    45   22   86 1    
    46   23   24 2    
    47   23   25 1    
    48   25   26 1    
    49   25   27 1    
    50   25   87 1    
    51   26   88 1    
    52   26   89 1    
    53   26   90 1    
    54   27   28 am   BACKBONE|DICT|INTERRES
    55   27   91 1    
    56   28   29 2    
    57   28   30 1    
    58   30   31 1    
    59   30   32 1    
    60   30   92 1    
    61   31   93 1    
    62   31   94 1    
    63   31   95 1    
    64   32   33 am   BACKBONE|DICT|INTERRES
    65   32   96 1    
    66   33   34 2    
    67   33   35 1    
    68   35   36 1    
    69   35   37 1    
    70   35   97 1    
    71   36   98 1    
    72   36   99 1    
    73   36  100 1    
    74   37   38 am   BACKBONE|DICT|INTERRES
    75   37  101 1    
    76   38   39 2    
    77   38   40 1    
    78   40   41 1    
    79   40   42 1    
    80   40  102 1    
    81   41  103 1    
    82   41  104 1    
    83   41  105 1    
    84   42   43 am   BACKBONE|DICT|INTERRES
    85   42  106 1    
    86   43   44 2    
    87   43   45 1    
    88   45   46 1    
    89   45   49 1    
    90   45  107 1    
    91   46   47 1    
    92   46  108 1    
    93   46  109 1    
    94   47   48 1    
    95   48  110 1    
    96   48  111 1    
    97   49   50 am   BACKBONE|DICT|INTERRES
    98   49  112 1    
    99   50   51 2    
   100   50   52 1    
   101   52   53 1    
   102   52   54 1    
   103   52  113 1    
   104   53  114 1    
   105   53  115 1    
   106   53  116 1    
   107   54   55 am   BACKBONE|DICT|INTERRES
   108   54  117 1    
   109   55   56 2    
   110   55   57 1    
   111   57   58 1    
   112   57   59 1    
   113   57  118 1    
   114   58  119 1    
   115   58  120 1    
   116   58  121 1    
   117   59   60 am   BACKBONE|DICT|INTERRES
   118   59  122 1    
   119   60   61 2    
   120   60   62 1    
   121   62   63 1    
   122   62   64 1    
   123   62  123 1    
   124   63  124 1    
   125   63  125 1    
   126   63  126 1    
   127   64   65 am   BACKBONE|DICT|INTERRES
   128   64  127 1    
   129   65   66 2    
@<TRIPOS>SUBSTRUCTURE
     1 UNK         1 GROUP             0       ****    0 ROOT    
