@<TRIPOS>MOLECULE
3R135
127   129    1
SMALL
USER_CHARGES


@<TRIPOS>ATOM
      1 CA        -84.9453   27.0036  -71.3477 C.3       0 UNK        -0.1998 
      2 C         -83.5460   27.1472  -71.9268 C.2       0 UNK         0.4909 
      3 O         -83.2286   28.1832  -72.5113 O.2       0 UNK        -0.5240 
      4 N         -82.7061   26.1143  -71.7706 N.am      1 UNK        -0.4739 
      5 CA        -81.3280   26.0742  -72.2798 C.3       1 UNK         0.0864 
      6 C6        -80.4717   25.0617  -71.4731 C.3       11 UNK        -0.0881 
      7 S7        -78.6849   25.4363  -71.4932 S.3       11 UNK        -0.2682 
      8 C8        -78.5313   26.7027  -70.1968 C.3       11 UNK         0.0289 
      9 C9        -77.6909   27.8684  -70.6937 C.ar      11 UNK        -0.0687 
     10 C10       -78.2220   28.7399  -71.6463 C.ar      11 UNK        -0.0823 
     11 C11       -77.4634   29.8014  -72.1392 C.ar      11 UNK        -0.0830 
     12 C12       -76.1857   30.0299  -71.6256 C.ar      11 UNK        -0.1021 
     13 C13       -75.6274   29.1527  -70.6914 C.ar      11 UNK        -0.0753 
     14 C14       -76.3864   28.0702  -70.2288 C.ar      11 UNK        -0.0933 
     15 C15       -74.2078   29.3739  -70.1840 C.3       11 UNK         0.0166 
     16 S16       -72.9503   29.0217  -71.4613 S.3       11 UNK        -0.2615 
     17 C17       -72.7750   30.6346  -72.3076 C.3       11 UNK        -0.0865 
     18 CA        -73.3350   30.6330  -73.7613 C.3       10 UNK         0.0862 
     19 C         -73.4968   32.0657  -74.3554 C.2       10 UNK         0.5551 
     20 N         -73.3417   32.2624  -75.6592 N.am      10 UNK        -0.7319 
     21 O         -73.8011   33.0112  -73.6321 O.2       10 UNK        -0.5018 
     22 N         -72.6601   29.6709  -74.6455 N.am      10 UNK        -0.4509 
     23 C         -71.3827   29.6906  -75.0462 C.2       10 UNK         0.4899 
     24 O         -70.5609   30.5411  -74.7004 O.2       10 UNK        -0.4839 
     25 CA        -70.9759   28.5624  -76.0143 C.3       9 UNK         0.0222 
     26 CB        -69.4612   28.5202  -76.3094 C.3       9 UNK        -0.1966 
     27 N         -71.4754   27.2552  -75.5734 N.am      9 UNK        -0.4218 
     28 C         -71.1541   26.5940  -74.4500 C.2       9 UNK         0.5020 
     29 O         -70.2833   26.9605  -73.6594 O.2       9 UNK        -0.5274 
     30 CA        -71.9424   25.3089  -74.1323 C.3       8 UNK         0.0270 
     31 CB        -72.8555   25.5359  -72.9152 C.3       8 UNK        -0.1976 
     32 N         -72.7559   24.8221  -75.2504 N.am      8 UNK        -0.4313 
     33 C         -72.2786   24.1798  -76.3251 C.2       8 UNK         0.5041 
     34 O         -71.0926   23.8834  -76.4741 O.2       8 UNK        -0.5577 
     35 CA        -73.2885   23.8336  -77.4349 C.3       7 UNK         0.0284 
     36 CB        -74.0354   22.5332  -77.1012 C.3       7 UNK        -0.1958 
     37 N         -74.2509   24.9101  -77.6977 N.am      7 UNK        -0.4454 
     38 C         -73.9202   26.1191  -78.1759 C.2       7 UNK         0.5089 
     39 O         -72.7690   26.4597  -78.4467 O.2       7 UNK        -0.5125 
     40 CA        -75.0582   27.1373  -78.3456 C.3       6 UNK         0.0408 
     41 CB        -75.8062   26.9136  -79.6693 C.3       6 UNK        -0.1791 
     42 N         -76.0002   27.1104  -77.2261 N.am      6 UNK        -0.4762 
     43 C         -75.7031   27.5257  -75.9856 C.2       6 UNK         0.5007 
     44 O         -74.6007   27.9687  -75.6639 O.2       6 UNK        -0.5032 
     45 CA        -76.8108   27.3740  -74.9198 C.3       5 UNK         0.0783 
     46 C46       -77.9059   28.4649  -75.0837 C.3       11 UNK        -0.0857 
     47 S47       -77.3010   30.1814  -74.8691 S.3       11 UNK        -0.2512 
     48 C48       -78.0076   30.6696  -73.2606 C.3       11 UNK         0.0225 
     49 N         -77.3892   26.0208  -74.9344 N.am      5 UNK        -0.4615 
     50 C         -76.6934   24.8771  -74.8172 C.2       4 UNK         0.5053 
     51 O         -75.4880   24.8351  -74.5815 O.2       4 UNK        -0.5105 
     52 CA        -77.4239   23.5498  -75.0924 C.3       4 UNK         0.0263 
     53 CB        -77.9798   22.9133  -73.8125 C.3       4 UNK        -0.1981 
     54 N         -78.4904   23.6553  -76.0836 N.am      4 UNK        -0.4224 
     55 C         -78.3436   24.0187  -77.3618 C.2       3 UNK         0.4895 
     56 O         -77.2542   24.2935  -77.8673 O.2       3 UNK        -0.5091 
     57 CA        -79.6241   24.1278  -78.2134 C.3       3 UNK         0.0250 
     58 CB        -79.9795   22.7706  -78.8504 C.3       3 UNK        -0.1996 
     59 N         -80.7784   24.7200  -77.5120 N.am      3 UNK        -0.4254 
     60 C         -81.4625   24.2420  -76.4605 C.2       2 UNK         0.5004 
     61 O         -81.2535   23.1463  -75.9343 O.2       2 UNK        -0.5226 
     62 CA        -82.5309   25.1685  -75.8581 C.3       2 UNK         0.0269 
     63 CB        -83.9411   24.6223  -76.1334 C.3       2 UNK        -0.1926 
     64 N         -82.3572   25.3536  -74.4126 N.am      2 UNK        -0.4687 
     65 C         -81.2626   25.8502  -73.8120 C.2       1 UNK         0.5165 
     66 O         -80.2442   26.1676  -74.4282 O.2       1 UNK        -0.5079 
     67 H67       -85.1292   27.7873  -70.6132 H         1 UNK         0.0900 
     68 H68       -85.6897   27.0960  -72.1381 H         1 UNK         0.0900 
     69 H69       -85.0881   26.0405  -70.8581 H         1 UNK         0.0900 
     70 H70       -83.0210   25.2891  -71.2793 H         1 UNK         0.2959 
     71 H71       -80.9099   27.0670  -72.1101 H         1 UNK         0.1079 
     72 H72       -80.6260   24.0445  -71.8376 H         1 UNK         0.0837 
     73 H73       -80.7853   25.0454  -70.4278 H         1 UNK         0.0837 
     74 H74       -79.5150   27.0712  -69.9024 H         1 UNK         0.0685 
     75 H75       -78.0899   26.2522  -69.3067 H         1 UNK         0.0685 
     76 H76       -79.2167   28.5707  -72.0308 H         1 UNK         0.1434 
     77 H77       -75.6141   30.8736  -71.9824 H         1 UNK         0.1329 
     78 H78       -75.9635   27.3857  -69.5062 H         1 UNK         0.1335 
     79 H79       -74.0116   28.7224  -69.3312 H         1 UNK         0.0680 
     80 H80       -74.0998   30.3926  -69.8096 H         1 UNK         0.0680 
     81 H81       -73.2661   31.3990  -71.7043 H         1 UNK         0.1032 
     82 H82       -71.7191   30.9078  -72.3105 H         1 UNK         0.1032 
     83 H83       -74.3557   30.2577  -73.7156 H         1 UNK         0.0461 
     84 H84       -73.1117   31.4917  -76.2650 H         1 UNK         0.3453 
     85 H85       -73.4597   33.1887  -76.0380 H         1 UNK         0.3453 
     86 H86       -73.2725   28.9441  -75.0147 H         1 UNK         0.2984 
     87 H87       -71.4848   28.7726  -76.9562 H         1 UNK         0.0554 
     88 H88       -69.1280   29.4536  -76.7644 H         1 UNK         0.0847 
     89 H89       -69.2148   27.7159  -77.0025 H         1 UNK         0.0847 
     90 H90       -68.8723   28.3755  -75.4033 H         1 UNK         0.0847 
     91 H91       -72.2075   26.8585  -76.1484 H         1 UNK         0.3141 
     92 H92       -71.2154   24.5363  -73.8735 H         1 UNK         0.0743 
     93 H93       -73.6014   26.3078  -73.1126 H         1 UNK         0.0784 
     94 H94       -73.3835   24.6237  -72.6369 H         1 UNK         0.0784 
     95 H95       -72.2800   25.8562  -72.0457 H         1 UNK         0.0784 
     96 H96       -73.7630   24.9622  -75.1670 H         1 UNK         0.3213 
     97 H97       -72.7250   23.6718  -78.3564 H         1 UNK         0.0855 
     98 H98       -74.5262   22.5901  -76.1305 H         1 UNK         0.0814 
     99 H99       -73.3432   21.6913  -77.0609 H         1 UNK         0.0814 
    100 H100      -74.7908   22.2983  -77.8514 H         1 UNK         0.0814 
    101 H101      -75.2328   24.7114  -77.5335 H         1 UNK         0.3105 
    102 H102      -74.6098   28.1327  -78.3805 H         1 UNK         0.0547 
    103 H103      -75.1216   26.9767  -80.5161 H         1 UNK         0.0837 
    104 H104      -76.2816   25.9335  -79.7108 H         1 UNK         0.0837 
    105 H105      -76.5779   27.6681  -79.8218 H         1 UNK         0.0837 
    106 H106      -76.9005   26.6842  -77.3954 H         1 UNK         0.3020 
    107 H107      -76.3406   27.5053  -73.9420 H         1 UNK         0.1245 
    108 H108      -78.7120   28.2900  -74.3726 H         1 UNK         0.0781 
    109 H109      -78.3725   28.3914  -76.0676 H         1 UNK         0.0781 
    110 H110      -79.0963   30.6125  -73.3076 H         1 UNK         0.0836 
    111 H111      -77.7634   31.7153  -73.0672 H         1 UNK         0.0836 
    112 H112      -78.3997   25.9657  -75.0262 H         1 UNK         0.3022 
    113 H113      -76.6825   22.8620  -75.4991 H         1 UNK         0.0747 
    114 H114      -78.2174   21.8612  -73.9697 H         1 UNK         0.0793 
    115 H115      -77.2591   22.9654  -72.9949 H         1 UNK         0.0793 
    116 H116      -78.8929   23.4091  -73.4873 H         1 UNK         0.0793 
    117 H117      -79.4345   23.4322  -75.7766 H         1 UNK         0.3047 
    118 H118      -79.3904   24.8166  -79.0270 H         1 UNK         0.0822 
    119 H119      -80.8434   22.8563  -79.5095 H         1 UNK         0.0807 
    120 H120      -80.2034   22.0110  -78.1009 H         1 UNK         0.0807 
    121 H121      -79.1496   22.3955  -79.4510 H         1 UNK         0.0807 
    122 H122      -81.0274   25.6439  -77.8384 H         1 UNK         0.2946 
    123 H123      -82.4469   26.1535  -76.3224 H         1 UNK         0.1144 
    124 H124      -84.7103   25.3023  -75.7666 H         1 UNK         0.0793 
    125 H125      -84.0965   23.6515  -75.6605 H         1 UNK         0.0793 
    126 H126      -84.1081   24.4934  -77.2037 H         1 UNK         0.0793 
    127 H127      -83.1432   25.1106  -73.8283 H         1 UNK         0.2896 
@<TRIPOS>BOND
     1    1    2 1    
     2    1   67 1    
     3    1   68 1    
     4    1   69 1    
     5    2    3 2    
     6    2    4 am   BACKBONE|DICT|INTERRES
     7    4    5 1    
     8    4   70 1    
     9    5    6 1    
    10    5   65 1    
    11    5   71 1    
    12    6    7 1    
    13    6   72 1    
    14    6   73 1    
    15    7    8 1    
    16    8    9 1    
    17    8   74 1    
    18    8   75 1    
    19    9   10 ar   
    20    9   14 ar   
    21   10   11 ar   
    22   10   76 1    
    23   11   12 ar   
    24   11   48 1    
    25   12   13 ar   
    26   12   77 1    
    27   13   14 ar   
    28   13   15 1    
    29   14   78 1    
    30   15   16 1    
    31   15   79 1    
    32   15   80 1    
    33   16   17 1    
    34   17   18 1    
    35   17   81 1    
    36   17   82 1    
    37   18   19 1    
    38   18   22 1    
    39   18   83 1    
    40   19   20 am   BACKBONE|DICT|INTERRES
    41   19   21 2    
    42   20   84 1    
    43   20   85 1    
    44   22   23 am   BACKBONE|DICT|INTERRES
    45   22   86 1    
    46   23   24 2    
    47   23   25 1    
    48   25   26 1    
    49   25   27 1    
    50   25   87 1    
    51   26   88 1    
    52   26   89 1    
    53   26   90 1    
    54   27   28 am   BACKBONE|DICT|INTERRES
    55   27   91 1    
    56   28   29 2    
    57   28   30 1    
    58   30   31 1    
    59   30   32 1    
    60   30   92 1    
    61   31   93 1    
    62   31   94 1    
    63   31   95 1    
    64   32   33 am   BACKBONE|DICT|INTERRES
    65   32   96 1    
    66   33   34 2    
    67   33   35 1    
    68   35   36 1    
    69   35   37 1    
    70   35   97 1    
    71   36   98 1    
    72   36   99 1    
    73   36  100 1    
    74   37   38 am   BACKBONE|DICT|INTERRES
    75   37  101 1    
    76   38   39 2    
    77   38   40 1    
    78   40   41 1    
    79   40   42 1    
    80   40  102 1    
    81   41  103 1    
    82   41  104 1    
    83   41  105 1    
    84   42   43 am   BACKBONE|DICT|INTERRES
    85   42  106 1    
    86   43   44 2    
    87   43   45 1    
    88   45   46 1    
    89   45   49 1    
    90   45  107 1    
    91   46   47 1    
    92   46  108 1    
    93   46  109 1    
    94   47   48 1    
    95   48  110 1    
    96   48  111 1    
    97   49   50 am   BACKBONE|DICT|INTERRES
    98   49  112 1    
    99   50   51 2    
   100   50   52 1    
   101   52   53 1    
   102   52   54 1    
   103   52  113 1    
   104   53  114 1    
   105   53  115 1    
   106   53  116 1    
   107   54   55 am   BACKBONE|DICT|INTERRES
   108   54  117 1    
   109   55   56 2    
   110   55   57 1    
   111   57   58 1    
   112   57   59 1    
   113   57  118 1    
   114   58  119 1    
   115   58  120 1    
   116   58  121 1    
   117   59   60 am   BACKBONE|DICT|INTERRES
   118   59  122 1    
   119   60   61 2    
   120   60   62 1    
   121   62   63 1    
   122   62   64 1    
   123   62  123 1    
   124   63  124 1    
   125   63  125 1    
   126   63  126 1    
   127   64   65 am   BACKBONE|DICT|INTERRES
   128   64  127 1    
   129   65   66 2    
@<TRIPOS>SUBSTRUCTURE
     1 UNK         1 GROUP             0       ****    0 ROOT    
