@<TRIPOS>MOLECULE
3R135
127   129    1
SMALL
USER_CHARGES


@<TRIPOS>ATOM
      1 CA        -82.0641   26.4579  -69.9740 C.3       0 UNK        -0.1998 
      2 C         -82.5181   26.9192  -71.3507 C.2       0 UNK         0.4909 
      3 O         -83.6919   26.7728  -71.6917 O.2       0 UNK        -0.5240 
      4 N         -81.5925   27.4692  -72.1465 N.am      1 UNK        -0.4739 
      5 CA        -81.8350   27.9352  -73.5185 C.3       1 UNK         0.0864 
      6 C6        -80.8075   29.0221  -73.9237 C.3       11 UNK        -0.0881 
      7 S7        -81.1464   30.6507  -73.1538 S.3       11 UNK        -0.2682 
      8 C8        -80.3352   30.5990  -71.5140 C.3       11 UNK         0.0289 
      9 C9        -78.9042   30.0864  -71.5745 C.ar      11 UNK        -0.0687 
     10 C10       -78.5788   28.8652  -70.9791 C.ar      11 UNK        -0.0823 
     11 C11       -77.3119   28.3078  -71.1598 C.ar      11 UNK        -0.0830 
     12 C12       -76.3461   29.0096  -71.8867 C.ar      11 UNK        -0.1021 
     13 C13       -76.6427   30.2577  -72.4414 C.ar      11 UNK        -0.0753 
     14 C14       -77.9236   30.7946  -72.2769 C.ar      11 UNK        -0.0933 
     15 C15       -75.6156   30.9780  -73.3024 C.3       11 UNK         0.0166 
     16 S16       -74.5140   32.0668  -72.3400 S.3       11 UNK        -0.2615 
     17 C17       -73.3440   30.8973  -71.5606 C.3       11 UNK        -0.0865 
     18 CA        -72.0744   30.6379  -72.4146 C.3       10 UNK         0.0862 
     19 C         -71.0631   29.7639  -71.6326 C.2       10 UNK         0.5551 
     20 N         -70.0345   30.3674  -71.0541 N.am      10 UNK        -0.7319 
     21 O         -71.2281   28.5510  -71.5127 O.2       10 UNK        -0.5018 
     22 N         -72.4057   29.9805  -73.6837 N.am      10 UNK        -0.4509 
     23 C         -72.0062   30.3777  -74.8959 C.2       10 UNK         0.4899 
     24 O         -71.3173   31.3787  -75.1011 O.2       10 UNK        -0.4839 
     25 CA        -72.4794   29.5097  -76.0787 C.3       9 UNK         0.0222 
     26 CB        -71.7147   29.8009  -77.3875 C.3       9 UNK        -0.1966 
     27 N         -72.4788   28.0716  -75.7843 N.am      9 UNK        -0.4218 
     28 C         -71.4246   27.3021  -75.4705 C.2       9 UNK         0.5020 
     29 O         -70.2738   27.7195  -75.3327 O.2       9 UNK        -0.5274 
     30 CA        -71.7015   25.7974  -75.3033 C.3       8 UNK         0.0270 
     31 CB        -72.2171   25.4939  -73.8867 C.3       8 UNK        -0.1976 
     32 N         -72.6448   25.2793  -76.3004 N.am      8 UNK        -0.4313 
     33 C         -72.3973   25.2111  -77.6178 C.2       8 UNK         0.5041 
     34 O         -71.3123   25.4955  -78.1270 O.2       8 UNK        -0.5577 
     35 CA        -73.5542   24.7642  -78.5286 C.3       7 UNK         0.0284 
     36 CB        -73.6643   23.2315  -78.5616 C.3       7 UNK        -0.1958 
     37 N         -74.8404   25.3488  -78.1412 N.am      7 UNK        -0.4454 
     38 C         -75.1432   26.6523  -78.2318 C.2       7 UNK         0.5089 
     39 O         -74.3975   27.4979  -78.7253 O.2       7 UNK        -0.5125 
     40 CA        -76.4938   27.0980  -77.6422 C.3       6 UNK         0.0408 
     41 CB        -77.6279   26.9058  -78.6604 C.3       6 UNK        -0.1791 
     42 N         -76.8294   26.4084  -76.3941 N.am      6 UNK        -0.4762 
     43 C         -76.1165   26.4942  -75.2616 C.2       6 UNK         0.5007 
     44 O         -75.1160   27.2011  -75.1333 O.2       6 UNK        -0.5032 
     45 CA        -76.5741   25.6103  -74.0858 C.3       5 UNK         0.0783 
     46 C46       -77.7935   26.2374  -73.3754 C.3       11 UNK        -0.0857 
     47 S47       -77.9952   25.6591  -71.6547 S.3       11 UNK        -0.2512 
     48 C48       -77.0329   26.8861  -70.6967 C.3       11 UNK         0.0225 
     49 N         -76.8540   24.2425  -74.5261 N.am      5 UNK        -0.4615 
     50 C         -75.9504   23.3950  -75.0328 C.2       4 UNK         0.5053 
     51 O         -74.7496   23.6470  -75.1226 O.2       4 UNK        -0.5105 
     52 CA        -76.4928   22.0616  -75.5748 C.3       4 UNK         0.0263 
     53 CB        -76.6574   21.0424  -74.4365 C.3       4 UNK        -0.1981 
     54 N         -77.7678   22.2210  -76.2826 N.am      4 UNK        -0.4224 
     55 C         -77.9156   22.8962  -77.4329 C.2       3 UNK         0.4895 
     56 O         -76.9805   23.4030  -78.0508 O.2       3 UNK        -0.5091 
     57 CA        -79.3520   23.0811  -77.9565 C.3       3 UNK         0.0250 
     58 CB        -79.7796   21.8708  -78.8015 C.3       3 UNK        -0.1996 
     59 N         -80.3338   23.3128  -76.8898 N.am      3 UNK        -0.4254 
     60 C         -80.3088   24.3601  -76.0530 C.2       2 UNK         0.5004 
     61 O         -79.4700   25.2601  -76.1254 O.2       2 UNK        -0.5226 
     62 CA        -81.3470   24.3466  -74.9146 C.3       2 UNK         0.0269 
     63 CB        -81.0651   23.1857  -73.9426 C.3       2 UNK        -0.1926 
     64 N         -81.3717   25.5863  -74.1333 N.am      2 UNK        -0.4687 
     65 C         -81.8674   26.7660  -74.5350 C.2       1 UNK         0.5165 
     66 O         -82.3704   26.9463  -75.6451 O.2       1 UNK        -0.5079 
     67 H67       -82.4992   27.0935  -69.2032 H         1 UNK         0.0900 
     68 H68       -80.9797   26.4866  -69.8697 H         1 UNK         0.0900 
     69 H69       -82.3902   25.4337  -69.7953 H         1 UNK         0.0900 
     70 H70       -80.6421   27.5597  -71.8206 H         1 UNK         0.2959 
     71 H71       -82.8303   28.3845  -73.5576 H         1 UNK         0.1079 
     72 H72       -80.8424   29.1911  -75.0020 H         1 UNK         0.0837 
     73 H73       -79.7863   28.7006  -73.7178 H         1 UNK         0.0837 
     74 H74       -80.9403   29.9870  -70.8436 H         1 UNK         0.0685 
     75 H75       -80.3363   31.6039  -71.0898 H         1 UNK         0.0685 
     76 H76       -79.3280   28.3106  -70.4328 H         1 UNK         0.1434 
     77 H77       -75.3835   28.5545  -72.0715 H         1 UNK         0.1329 
     78 H78       -78.1759   31.7386  -72.7405 H         1 UNK         0.1335 
     79 H79       -76.1291   31.5885  -74.0467 H         1 UNK         0.0680 
     80 H80       -75.0359   30.2527  -73.8723 H         1 UNK         0.0680 
     81 H81       -73.8460   29.9647  -71.3104 H         1 UNK         0.1032 
     82 H82       -73.0579   31.3347  -70.6020 H         1 UNK         0.1032 
     83 H83       -71.6066   31.6047  -72.6118 H         1 UNK         0.0461 
     84 H84       -69.3751   29.8150  -70.5282 H         1 UNK         0.3453 
     85 H85       -69.8980   31.3629  -71.1391 H         1 UNK         0.3453 
     86 H86       -72.9007   29.1045  -73.6058 H         1 UNK         0.2984 
     87 H87       -73.5241   29.7755  -76.2468 H         1 UNK         0.0554 
     88 H88       -71.8307   30.8433  -77.6860 H         1 UNK         0.0847 
     89 H89       -72.0879   29.1866  -78.2073 H         1 UNK         0.0847 
     90 H90       -70.6464   29.6086  -77.2839 H         1 UNK         0.0847 
     91 H91       -73.3965   27.6305  -75.7874 H         1 UNK         0.3141 
     92 H92       -70.7546   25.2704  -75.4382 H         1 UNK         0.0743 
     93 H93       -71.5182   25.8570  -73.1315 H         1 UNK         0.0784 
     94 H94       -73.1789   25.9685  -73.6932 H         1 UNK         0.0784 
     95 H95       -72.3367   24.4216  -73.7301 H         1 UNK         0.0784 
     96 H96       -73.5374   24.9374  -75.9539 H         1 UNK         0.3213 
     97 H97       -73.3273   25.1070  -79.5405 H         1 UNK         0.0855 
     98 H98       -73.9032   22.8207  -77.5807 H         1 UNK         0.0814 
     99 H99       -72.7249   22.7805  -78.8839 H         1 UNK         0.0814 
    100 H100      -74.4368   22.9045  -79.2578 H         1 UNK         0.0814 
    101 H101      -75.5554   24.7081  -77.8070 H         1 UNK         0.3105 
    102 H102      -76.4202   28.1639  -77.4162 H         1 UNK         0.0547 
    103 H103      -77.4288   27.4660  -79.5747 H         1 UNK         0.0837 
    104 H104      -77.7475   25.8592  -78.9398 H         1 UNK         0.0837 
    105 H105      -78.5811   27.2568  -78.2644 H         1 UNK         0.0837 
    106 H106      -77.6785   25.8466  -76.3917 H         1 UNK         0.3020 
    107 H107      -75.7387   25.5725  -73.3830 H         1 UNK         0.1245 
    108 H108      -78.7095   25.9878  -73.9016 H         1 UNK         0.0781 
    109 H109      -77.7641   27.3238  -73.4188 H         1 UNK         0.0781 
    110 H110      -77.2792   26.7896  -69.6384 H         1 UNK         0.0836 
    111 H111      -75.9712   26.6512  -70.7873 H         1 UNK         0.0836 
    112 H112      -77.8227   23.9647  -74.5183 H         1 UNK         0.3022 
    113 H113      -75.7605   21.6683  -76.2830 H         1 UNK         0.0747 
    114 H114      -75.7150   20.8959  -73.9067 H         1 UNK         0.0793 
    115 H115      -76.9669   20.0690  -74.8175 H         1 UNK         0.0793 
    116 H116      -77.3964   21.3671  -73.7028 H         1 UNK         0.0793 
    117 H117      -78.5876   21.8217  -75.8501 H         1 UNK         0.3047 
    118 H118      -79.3528   23.9625  -78.6012 H         1 UNK         0.0822 
    119 H119      -80.7570   22.0304  -79.2572 H         1 UNK         0.0807 
    120 H120      -79.8301   20.9574  -78.2076 H         1 UNK         0.0807 
    121 H121      -79.0720   21.6931  -79.6129 H         1 UNK         0.0807 
    122 H122      -81.0521   22.6117  -76.7758 H         1 UNK         0.2946 
    123 H123      -82.3331   24.2068  -75.3636 H         1 UNK         0.1144 
    124 H124      -81.1013   22.2193  -74.4467 H         1 UNK         0.0793 
    125 H125      -81.8071   23.1514  -73.1443 H         1 UNK         0.0793 
    126 H126      -80.0821   23.2765  -73.4780 H         1 UNK         0.0793 
    127 H127      -80.9789   25.5396  -73.2053 H         1 UNK         0.2896 
@<TRIPOS>BOND
     1    1    2 1    
     2    1   67 1    
     3    1   68 1    
     4    1   69 1    
     5    2    3 2    
     6    2    4 am   BACKBONE|DICT|INTERRES
     7    4    5 1    
     8    4   70 1    
     9    5    6 1    
    10    5   65 1    
    11    5   71 1    
    12    6    7 1    
    13    6   72 1    
    14    6   73 1    
    15    7    8 1    
    16    8    9 1    
    17    8   74 1    
    18    8   75 1    
    19    9   10 ar   
    20    9   14 ar   
    21   10   11 ar   
    22   10   76 1    
    23   11   12 ar   
    24   11   48 1    
    25   12   13 ar   
    26   12   77 1    
    27   13   14 ar   
    28   13   15 1    
    29   14   78 1    
    30   15   16 1    
    31   15   79 1    
    32   15   80 1    
    33   16   17 1    
    34   17   18 1    
    35   17   81 1    
    36   17   82 1    
    37   18   19 1    
    38   18   22 1    
    39   18   83 1    
    40   19   20 am   BACKBONE|DICT|INTERRES
    41   19   21 2    
    42   20   84 1    
    43   20   85 1    
    44   22   23 am   BACKBONE|DICT|INTERRES
    45   22   86 1    
    46   23   24 2    
    47   23   25 1    
    48   25   26 1    
    49   25   27 1    
    50   25   87 1    
    51   26   88 1    
    52   26   89 1    
    53   26   90 1    
    54   27   28 am   BACKBONE|DICT|INTERRES
    55   27   91 1    
    56   28   29 2    
    57   28   30 1    
    58   30   31 1    
    59   30   32 1    
    60   30   92 1    
    61   31   93 1    
    62   31   94 1    
    63   31   95 1    
    64   32   33 am   BACKBONE|DICT|INTERRES
    65   32   96 1    
    66   33   34 2    
    67   33   35 1    
    68   35   36 1    
    69   35   37 1    
    70   35   97 1    
    71   36   98 1    
    72   36   99 1    
    73   36  100 1    
    74   37   38 am   BACKBONE|DICT|INTERRES
    75   37  101 1    
    76   38   39 2    
    77   38   40 1    
    78   40   41 1    
    79   40   42 1    
    80   40  102 1    
    81   41  103 1    
    82   41  104 1    
    83   41  105 1    
    84   42   43 am   BACKBONE|DICT|INTERRES
    85   42  106 1    
    86   43   44 2    
    87   43   45 1    
    88   45   46 1    
    89   45   49 1    
    90   45  107 1    
    91   46   47 1    
    92   46  108 1    
    93   46  109 1    
    94   47   48 1    
    95   48  110 1    
    96   48  111 1    
    97   49   50 am   BACKBONE|DICT|INTERRES
    98   49  112 1    
    99   50   51 2    
   100   50   52 1    
   101   52   53 1    
   102   52   54 1    
   103   52  113 1    
   104   53  114 1    
   105   53  115 1    
   106   53  116 1    
   107   54   55 am   BACKBONE|DICT|INTERRES
   108   54  117 1    
   109   55   56 2    
   110   55   57 1    
   111   57   58 1    
   112   57   59 1    
   113   57  118 1    
   114   58  119 1    
   115   58  120 1    
   116   58  121 1    
   117   59   60 am   BACKBONE|DICT|INTERRES
   118   59  122 1    
   119   60   61 2    
   120   60   62 1    
   121   62   63 1    
   122   62   64 1    
   123   62  123 1    
   124   63  124 1    
   125   63  125 1    
   126   63  126 1    
   127   64   65 am   BACKBONE|DICT|INTERRES
   128   64  127 1    
   129   65   66 2    
@<TRIPOS>SUBSTRUCTURE
     1 UNK         1 GROUP             0       ****    0 ROOT    
