@<TRIPOS>MOLECULE
3R135
127   129    1
SMALL
USER_CHARGES


@<TRIPOS>ATOM
      1 CA        -83.6834   27.9007  -75.2213 C.3       0 UNK        -0.1998 
      2 C         -82.3102   28.2052  -74.6425 C.2       0 UNK         0.4909 
      3 O         -81.6435   29.1330  -75.1018 O.2       0 UNK        -0.5240 
      4 N         -81.8764   27.4259  -73.6433 N.am      1 UNK        -0.4739 
      5 CA        -80.5707   27.5359  -72.9831 C.3       1 UNK         0.0864 
      6 C6        -80.5921   26.8758  -71.5764 C.3       11 UNK        -0.0881 
      7 S7        -81.0438   28.1167  -70.3129 S.3       11 UNK        -0.2682 
      8 C8        -79.4492   28.5155  -69.5079 C.3       11 UNK         0.0289 
      9 C9        -78.2716   28.5567  -70.4757 C.ar      11 UNK        -0.0687 
     10 C10       -77.3158   27.5378  -70.4462 C.ar      11 UNK        -0.0823 
     11 C11       -76.2646   27.5168  -71.3656 C.ar      11 UNK        -0.0830 
     12 C12       -76.1597   28.5389  -72.3131 C.ar      11 UNK        -0.1021 
     13 C13       -77.0946   29.5807  -72.3352 C.ar      11 UNK        -0.0753 
     14 C14       -78.1463   29.5867  -71.4125 C.ar      11 UNK        -0.0933 
     15 C15       -76.9777   30.6913  -73.3688 C.3       11 UNK         0.0166 
     16 S16       -76.4969   32.2893  -72.6336 S.3       11 UNK        -0.2615 
     17 C17       -74.8576   31.9032  -71.9300 C.3       11 UNK        -0.0865 
     18 CA        -73.7242   31.8794  -72.9948 C.3       10 UNK         0.0862 
     19 C         -73.0435   33.2714  -73.1619 C.2       10 UNK         0.5551 
     20 N         -71.7587   33.4213  -72.8622 N.am      10 UNK        -0.7319 
     21 O         -73.6888   34.2298  -73.5785 O.2       10 UNK        -0.5018 
     22 N         -72.8012   30.7600  -72.7441 N.am      10 UNK        -0.4509 
     23 C         -72.0109   30.1924  -73.6637 C.2       10 UNK         0.4899 
     24 O         -71.9488   30.5668  -74.8363 O.2       10 UNK        -0.4839 
     25 CA        -71.1133   29.0261  -73.1959 C.3       9 UNK         0.0222 
     26 CB        -71.4940   28.4467  -71.8129 C.3       9 UNK        -0.1966 
     27 N         -71.0264   27.9556  -74.1970 N.am      9 UNK        -0.4218 
     28 C         -72.0383   27.2283  -74.6923 C.2       9 UNK         0.5020 
     29 O         -73.2153   27.3335  -74.3367 O.2       9 UNK        -0.5274 
     30 CA        -71.6494   26.1622  -75.7299 C.3       8 UNK         0.0270 
     31 CB        -71.3010   24.8381  -75.0313 C.3       8 UNK        -0.1976 
     32 N         -72.7377   25.9422  -76.6845 N.am      8 UNK        -0.4313 
     33 C         -73.0120   26.7677  -77.7048 C.2       8 UNK         0.5041 
     34 O         -72.2989   27.7295  -77.9983 O.2       8 UNK        -0.5577 
     35 CA        -74.2952   26.5210  -78.5258 C.3       7 UNK         0.0284 
     36 CB        -74.0726   26.7269  -80.0394 C.3       7 UNK        -0.1958 
     37 N         -74.9689   25.2451  -78.2599 N.am      7 UNK        -0.4454 
     38 C         -74.5424   24.0042  -78.5302 C.2       7 UNK         0.5089 
     39 O         -73.4676   23.7419  -79.0722 O.2       7 UNK        -0.5125 
     40 CA        -75.4879   22.8736  -78.0761 C.3       6 UNK         0.0408 
     41 CB        -74.8674   21.4687  -78.2257 C.3       6 UNK        -0.1791 
     42 N         -75.9904   23.0801  -76.7102 N.am      6 UNK        -0.4762 
     43 C         -75.2623   23.1950  -75.5883 C.2       6 UNK         0.5007 
     44 O         -74.0342   23.1214  -75.5765 O.2       6 UNK        -0.5032 
     45 CA        -76.0011   23.4460  -74.2543 C.3       5 UNK         0.0783 
     46 C46       -75.5277   24.7618  -73.5878 C.3       11 UNK        -0.0857 
     47 S47       -75.9731   24.8020  -71.8236 S.3       11 UNK        -0.2512 
     48 C48       -75.2450   26.3897  -71.3119 C.3       11 UNK         0.0225 
     49 N         -77.4633   23.4054  -74.3795 N.am      5 UNK        -0.4615 
     50 C         -78.1948   22.2890  -74.4909 C.2       4 UNK         0.5053 
     51 O         -77.7188   21.1540  -74.4876 O.2       4 UNK        -0.5105 
     52 CA        -79.7094   22.4738  -74.6642 C.3       4 UNK         0.0263 
     53 CB        -80.3952   22.6645  -73.3009 C.3       4 UNK        -0.1981 
     54 N         -80.0104   23.6139  -75.5329 N.am      4 UNK        -0.4224 
     55 C         -80.0166   23.5630  -76.8734 C.2       3 UNK         0.4895 
     56 O         -79.8210   22.5336  -77.5194 O.2       3 UNK        -0.5091 
     57 CA        -80.2712   24.8816  -77.6281 C.3       3 UNK         0.0250 
     58 CB        -81.7779   25.0909  -77.8510 C.3       3 UNK        -0.1996 
     59 N         -79.7184   26.0536  -76.9473 N.am      3 UNK        -0.4254 
     60 C         -78.4112   26.2869  -76.7655 C.2       2 UNK         0.5004 
     61 O         -77.5192   25.5796  -77.2274 O.2       2 UNK        -0.5226 
     62 CA        -78.0305   27.4867  -75.8836 C.3       2 UNK         0.0269 
     63 CB        -77.7729   28.7265  -76.7536 C.3       2 UNK        -0.1926 
     64 N         -79.0345   27.8073  -74.8650 N.am      2 UNK        -0.4687 
     65 C         -79.4641   26.9810  -73.9003 C.2       1 UNK         0.5165 
     66 O         -79.0765   25.8172  -73.7793 O.2       1 UNK        -0.5079 
     67 H67       -84.3405   28.7610  -75.0974 H         1 UNK         0.0900 
     68 H68       -83.6023   27.6846  -76.2862 H         1 UNK         0.0900 
     69 H69       -84.1506   27.0441  -74.7359 H         1 UNK         0.0900 
     70 H70       -82.4683   26.6776  -73.3118 H         1 UNK         0.2959 
     71 H71       -80.3452   28.5977  -72.8619 H         1 UNK         0.1079 
     72 H72       -79.6370   26.4223  -71.3103 H         1 UNK         0.0837 
     73 H73       -81.3073   26.0526  -71.5378 H         1 UNK         0.0837 
     74 H74       -79.2685   27.7819  -68.7207 H         1 UNK         0.0685 
     75 H75       -79.5385   29.4801  -69.0063 H         1 UNK         0.0685 
     76 H76       -77.4026   26.7384  -69.7227 H         1 UNK         0.1434 
     77 H77       -75.3469   28.5262  -73.0276 H         1 UNK         0.1329 
     78 H78       -78.8776   30.3832  -71.4358 H         1 UNK         0.1335 
     79 H79       -76.2574   30.4227  -74.1427 H         1 UNK         0.0680 
     80 H80       -77.9370   30.8112  -73.8740 H         1 UNK         0.0680 
     81 H81       -74.6416   32.6224  -71.1374 H         1 UNK         0.1032 
     82 H82       -74.9342   30.9455  -71.4147 H         1 UNK         0.1032 
     83 H83       -74.1795   31.6698  -73.9645 H         1 UNK         0.0461 
     84 H84       -71.3258   34.3241  -72.9781 H         1 UNK         0.3453 
     85 H85       -71.2186   32.6411  -72.5250 H         1 UNK         0.3453 
     86 H86       -72.7671   30.4101  -71.7984 H         1 UNK         0.2984 
     87 H87       -70.1070   29.4386  -73.1113 H         1 UNK         0.0554 
     88 H88       -71.3629   29.1844  -71.0204 H         1 UNK         0.0847 
     89 H89       -70.8617   27.5967  -71.5562 H         1 UNK         0.0847 
     90 H90       -72.5289   28.1058  -71.7840 H         1 UNK         0.0847 
     91 H91       -70.1039   27.7998  -74.5793 H         1 UNK         0.3141 
     92 H92       -70.7685   26.5018  -76.2793 H         1 UNK         0.0743 
     93 H93       -70.4135   24.9486  -74.4072 H         1 UNK         0.0784 
     94 H94       -71.0943   24.0477  -75.7533 H         1 UNK         0.0784 
     95 H95       -72.1089   24.4974  -74.3834 H         1 UNK         0.0784 
     96 H96       -73.3651   25.1731  -76.4897 H         1 UNK         0.3213 
     97 H97       -74.9966   27.2884  -78.1966 H         1 UNK         0.0855 
     98 H98       -73.3228   26.0421  -80.4361 H         1 UNK         0.0814 
     99 H99       -73.7279   27.7398  -80.2508 H         1 UNK         0.0814 
    100 H100      -74.9952   26.5783  -80.6004 H         1 UNK         0.0814 
    101 H101      -75.8873   25.3269  -77.8187 H         1 UNK         0.3105 
    102 H102      -76.3589   22.9213  -78.7314 H         1 UNK         0.0547 
    103 H103      -75.5665   20.6918  -77.9170 H         1 UNK         0.0837 
    104 H104      -73.9600   21.3596  -77.6308 H         1 UNK         0.0837 
    105 H105      -74.5996   21.2697  -79.2640 H         1 UNK         0.0837 
    106 H106      -76.9881   23.2232  -76.6296 H         1 UNK         0.3020 
    107 H107      -75.6993   22.6186  -73.6076 H         1 UNK         0.1245 
    108 H108      -75.9493   25.6334  -74.0895 H         1 UNK         0.0781 
    109 H109      -74.4429   24.8678  -73.6473 H         1 UNK         0.0781 
    110 H110      -74.3751   26.6160  -71.9291 H         1 UNK         0.0836 
    111 H111      -74.8756   26.2937  -70.2900 H         1 UNK         0.0836 
    112 H112      -77.9459   24.2963  -74.3079 H         1 UNK         0.3022 
    113 H113      -80.1103   21.5643  -75.1174 H         1 UNK         0.0747 
    114 H114      -81.4743   22.7718  -73.4117 H         1 UNK         0.0793 
    115 H115      -80.2200   21.8028  -72.6555 H         1 UNK         0.0793 
    116 H116      -80.0230   23.5439  -72.7742 H         1 UNK         0.0793 
    117 H117      -80.1012   24.5125  -75.0753 H         1 UNK         0.3047 
    118 H118      -79.7865   24.8014  -78.6037 H         1 UNK         0.0822 
    119 H119      -81.9710   25.9807  -78.4507 H         1 UNK         0.0807 
    120 H120      -82.3168   25.1966  -76.9085 H         1 UNK         0.0807 
    121 H121      -82.2142   24.2438  -78.3824 H         1 UNK         0.0807 
    122 H122      -80.3750   26.7057  -76.5444 H         1 UNK         0.2946 
    123 H123      -77.1044   27.2309  -75.3659 H         1 UNK         0.1144 
    124 H124      -77.3973   29.5591  -76.1603 H         1 UNK         0.0793 
    125 H125      -78.6798   29.0587  -77.2606 H         1 UNK         0.0793 
    126 H126      -77.0280   28.5190  -77.5227 H         1 UNK         0.0793 
    127 H127      -79.4995   28.7033  -74.9515 H         1 UNK         0.2896 
@<TRIPOS>BOND
     1    1    2 1    
     2    1   67 1    
     3    1   68 1    
     4    1   69 1    
     5    2    3 2    
     6    2    4 am   BACKBONE|DICT|INTERRES
     7    4    5 1    
     8    4   70 1    
     9    5    6 1    
    10    5   65 1    
    11    5   71 1    
    12    6    7 1    
    13    6   72 1    
    14    6   73 1    
    15    7    8 1    
    16    8    9 1    
    17    8   74 1    
    18    8   75 1    
    19    9   10 ar   
    20    9   14 ar   
    21   10   11 ar   
    22   10   76 1    
    23   11   12 ar   
    24   11   48 1    
    25   12   13 ar   
    26   12   77 1    
    27   13   14 ar   
    28   13   15 1    
    29   14   78 1    
    30   15   16 1    
    31   15   79 1    
    32   15   80 1    
    33   16   17 1    
    34   17   18 1    
    35   17   81 1    
    36   17   82 1    
    37   18   19 1    
    38   18   22 1    
    39   18   83 1    
    40   19   20 am   BACKBONE|DICT|INTERRES
    41   19   21 2    
    42   20   84 1    
    43   20   85 1    
    44   22   23 am   BACKBONE|DICT|INTERRES
    45   22   86 1    
    46   23   24 2    
    47   23   25 1    
    48   25   26 1    
    49   25   27 1    
    50   25   87 1    
    51   26   88 1    
    52   26   89 1    
    53   26   90 1    
    54   27   28 am   BACKBONE|DICT|INTERRES
    55   27   91 1    
    56   28   29 2    
    57   28   30 1    
    58   30   31 1    
    59   30   32 1    
    60   30   92 1    
    61   31   93 1    
    62   31   94 1    
    63   31   95 1    
    64   32   33 am   BACKBONE|DICT|INTERRES
    65   32   96 1    
    66   33   34 2    
    67   33   35 1    
    68   35   36 1    
    69   35   37 1    
    70   35   97 1    
    71   36   98 1    
    72   36   99 1    
    73   36  100 1    
    74   37   38 am   BACKBONE|DICT|INTERRES
    75   37  101 1    
    76   38   39 2    
    77   38   40 1    
    78   40   41 1    
    79   40   42 1    
    80   40  102 1    
    81   41  103 1    
    82   41  104 1    
    83   41  105 1    
    84   42   43 am   BACKBONE|DICT|INTERRES
    85   42  106 1    
    86   43   44 2    
    87   43   45 1    
    88   45   46 1    
    89   45   49 1    
    90   45  107 1    
    91   46   47 1    
    92   46  108 1    
    93   46  109 1    
    94   47   48 1    
    95   48  110 1    
    96   48  111 1    
    97   49   50 am   BACKBONE|DICT|INTERRES
    98   49  112 1    
    99   50   51 2    
   100   50   52 1    
   101   52   53 1    
   102   52   54 1    
   103   52  113 1    
   104   53  114 1    
   105   53  115 1    
   106   53  116 1    
   107   54   55 am   BACKBONE|DICT|INTERRES
   108   54  117 1    
   109   55   56 2    
   110   55   57 1    
   111   57   58 1    
   112   57   59 1    
   113   57  118 1    
   114   58  119 1    
   115   58  120 1    
   116   58  121 1    
   117   59   60 am   BACKBONE|DICT|INTERRES
   118   59  122 1    
   119   60   61 2    
   120   60   62 1    
   121   62   63 1    
   122   62   64 1    
   123   62  123 1    
   124   63  124 1    
   125   63  125 1    
   126   63  126 1    
   127   64   65 am   BACKBONE|DICT|INTERRES
   128   64  127 1    
   129   65   66 2    
@<TRIPOS>SUBSTRUCTURE
     1 UNK         1 GROUP             0       ****    0 ROOT    
