@<TRIPOS>MOLECULE
3R135
127   129    1
SMALL
USER_CHARGES


@<TRIPOS>ATOM
      1 CA        -85.1768   30.0923  -76.7506 C.3       0 UNK        -0.1998 
      2 C         -84.2904   29.0915  -76.0249 C.2       0 UNK         0.4909 
      3 O         -84.7838   28.0560  -75.5759 O.2       0 UNK        -0.5240 
      4 N         -82.9893   29.3961  -75.9104 N.am      1 UNK        -0.4739 
      5 CA        -81.9318   28.5899  -75.2853 C.3       1 UNK         0.0864 
      6 C6        -82.2032   28.2731  -73.7864 C.3       11 UNK        -0.0881 
      7 S7        -80.7798   27.5222  -72.9307 S.3       11 UNK        -0.2682 
      8 C8        -79.9987   28.9714  -72.1389 C.3       11 UNK         0.0289 
      9 C9        -78.6262   28.6829  -71.5252 C.ar      11 UNK        -0.0687 
     10 C10       -78.3140   27.4356  -70.9699 C.ar      11 UNK        -0.0823 
     11 C11       -77.0593   27.1954  -70.4037 C.ar      11 UNK        -0.0830 
     12 C12       -76.1053   28.2162  -70.3871 C.ar      11 UNK        -0.1021 
     13 C13       -76.4068   29.4784  -70.9090 C.ar      11 UNK        -0.0753 
     14 C14       -77.6670   29.7014  -71.4779 C.ar      11 UNK        -0.0933 
     15 C15       -75.3872   30.6094  -70.7900 C.3       11 UNK         0.0166 
     16 S16       -75.0811   31.4974  -72.3525 S.3       11 UNK        -0.2615 
     17 C17       -74.3198   30.1932  -73.3698 C.3       11 UNK        -0.0865 
     18 CA        -72.7917   30.3588  -73.5516 C.3       10 UNK         0.0862 
     19 C         -72.0006   29.7722  -72.3502 C.2       10 UNK         0.5551 
     20 N         -71.8561   28.4565  -72.2645 N.am      10 UNK        -0.7319 
     21 O         -71.5146   30.5125  -71.4986 O.2       10 UNK        -0.5018 
     22 N         -72.3500   29.8337  -74.8543 N.am      10 UNK        -0.4509 
     23 C         -71.1615   30.1114  -75.4061 C.2       10 UNK         0.4899 
     24 O         -70.3203   30.8424  -74.8790 O.2       10 UNK        -0.4839 
     25 CA        -70.8820   29.5062  -76.7972 C.3       9 UNK         0.0222 
     26 CB        -69.4201   29.7050  -77.2522 C.3       9 UNK        -0.1966 
     27 N         -71.2632   28.0960  -76.9301 N.am      9 UNK        -0.4218 
     28 C         -70.8474   27.0533  -76.1979 C.2       9 UNK         0.5020 
     29 O         -70.1033   27.1582  -75.2213 O.2       9 UNK        -0.5274 
     30 CA        -71.3147   25.6526  -76.6577 C.3       8 UNK         0.0270 
     31 CB        -71.0045   24.5614  -75.6156 C.3       8 UNK        -0.1976 
     32 N         -72.7385   25.5833  -77.0083 N.am      8 UNK        -0.4313 
     33 C         -73.3088   26.0927  -78.1088 C.2       8 UNK         0.5041 
     34 O         -72.6798   26.6895  -78.9839 O.2       8 UNK        -0.5577 
     35 CA        -74.8380   25.9766  -78.2286 C.3       7 UNK         0.0284 
     36 CB        -75.2422   24.6007  -78.7812 C.3       7 UNK        -0.1958 
     37 N         -75.5339   26.2243  -76.9638 N.am      7 UNK        -0.4454 
     38 C         -75.4889   27.3736  -76.2726 C.2       7 UNK         0.5089 
     39 O         -74.8712   28.3790  -76.6271 O.2       7 UNK        -0.5125 
     40 CA        -76.2224   27.3789  -74.9255 C.3       6 UNK         0.0408 
     41 CB        -77.7364   27.4996  -75.1088 C.3       6 UNK        -0.1791 
     42 N         -75.8954   26.2007  -74.1252 N.am      6 UNK        -0.4762 
     43 C         -74.6878   25.9634  -73.5918 C.2       6 UNK         0.5007 
     44 O         -73.7412   26.7490  -73.6581 O.2       6 UNK        -0.5032 
     45 CA        -74.4824   24.5947  -72.9140 C.3       5 UNK         0.0783 
     46 C46       -74.7849   24.6453  -71.3945 C.3       11 UNK        -0.0857 
     47 S47       -76.5619   24.5223  -70.9808 S.3       11 UNK        -0.2512 
     48 C48       -76.7700   25.8498  -69.7548 C.3       11 UNK         0.0225 
     49 N         -75.2090   23.5155  -73.5928 N.am      5 UNK        -0.4615 
     50 C         -74.9655   23.0892  -74.8384 C.2       4 UNK         0.5053 
     51 O         -74.0576   23.5244  -75.5429 O.2       4 UNK        -0.5105 
     52 CA        -75.9278   22.0362  -75.4108 C.3       4 UNK         0.0263 
     53 CB        -75.5059   20.6240  -74.9760 C.3       4 UNK        -0.1981 
     54 N         -77.3242   22.2760  -75.0316 N.am      4 UNK        -0.4224 
     55 C         -78.0385   23.3422  -75.4162 C.2       3 UNK         0.4895 
     56 O         -77.6001   24.2364  -76.1445 O.2       3 UNK        -0.5091 
     57 CA        -79.4568   23.4477  -74.8476 C.3       3 UNK         0.0250 
     58 CB        -79.4299   24.0710  -73.4404 C.3       3 UNK        -0.1996 
     59 N         -80.2864   24.2648  -75.7315 N.am      3 UNK        -0.4254 
     60 C         -81.6071   24.1185  -75.8919 C.2       2 UNK         0.5004 
     61 O         -82.2798   23.2840  -75.2821 O.2       2 UNK        -0.5226 
     62 CA        -82.2980   25.0881  -76.8677 C.3       2 UNK         0.0269 
     63 CB        -83.6597   24.5612  -77.3580 C.3       2 UNK        -0.1926 
     64 N         -82.5021   26.3825  -76.2193 N.am      2 UNK        -0.4687 
     65 C         -81.5810   27.3477  -76.1336 C.2       1 UNK         0.5165 
     66 O         -80.4943   27.2915  -76.7091 O.2       1 UNK        -0.5079 
     67 H67       -85.9723   30.4360  -76.0898 H         1 UNK         0.0900 
     68 H68       -84.6174   30.9641  -77.0894 H         1 UNK         0.0900 
     69 H69       -85.6354   29.6241  -77.6211 H         1 UNK         0.0900 
     70 H70       -82.6628   30.2563  -76.3299 H         1 UNK         0.2959 
     71 H71       -81.0439   29.2243  -75.3130 H         1 UNK         0.1079 
     72 H72       -82.4887   29.1850  -73.2597 H         1 UNK         0.0837 
     73 H73       -83.0492   27.5934  -73.6769 H         1 UNK         0.0837 
     74 H74       -79.9061   29.7604  -72.8869 H         1 UNK         0.0685 
     75 H75       -80.6604   29.3512  -71.3595 H         1 UNK         0.0685 
     76 H76       -79.0493   26.6431  -70.9663 H         1 UNK         0.1434 
     77 H77       -75.1393   28.0382  -69.9345 H         1 UNK         0.1329 
     78 H78       -77.9043   30.6793  -71.8741 H         1 UNK         0.1335 
     79 H79       -74.4347   30.2363  -70.4102 H         1 UNK         0.0680 
     80 H80       -75.7509   31.3246  -70.0513 H         1 UNK         0.0680 
     81 H81       -74.5578   29.2118  -72.9588 H         1 UNK         0.1032 
     82 H82       -74.8151   30.2482  -74.3401 H         1 UNK         0.1032 
     83 H83       -72.5815   31.4304  -73.5773 H         1 UNK         0.0461 
     84 H84       -72.3152   27.8468  -72.9343 H         1 UNK         0.3453 
     85 H85       -71.3327   28.0630  -71.5000 H         1 UNK         0.3453 
     86 H86       -72.9804   29.2052  -75.3349 H         1 UNK         0.2984 
     87 H87       -71.5179   30.0540  -77.4941 H         1 UNK         0.0554 
     88 H88       -69.1564   30.7631  -77.2775 H         1 UNK         0.0847 
     89 H89       -69.2585   29.3100  -78.2551 H         1 UNK         0.0847 
     90 H90       -68.7181   29.2105  -76.5797 H         1 UNK         0.0847 
     91 H91       -71.8639   27.8708  -77.7203 H         1 UNK         0.3141 
     92 H92       -70.7403   25.4173  -77.5559 H         1 UNK         0.0743 
     93 H93       -69.9380   24.5211  -75.3904 H         1 UNK         0.0784 
     94 H94       -71.5314   24.7447  -74.6786 H         1 UNK         0.0784 
     95 H95       -71.2933   23.5739  -75.9759 H         1 UNK         0.0784 
     96 H96       -73.3289   25.0586  -76.3663 H         1 UNK         0.3213 
     97 H97       -75.1708   26.7385  -78.9366 H         1 UNK         0.0855 
     98 H98       -74.9369   23.7920  -78.1172 H         1 UNK         0.0814 
     99 H99       -74.7774   24.4189  -79.7511 H         1 UNK         0.0814 
    100 H100      -76.3213   24.5296  -78.9193 H         1 UNK         0.0814 
    101 H101      -76.1032   25.4663  -76.5974 H         1 UNK         0.3105 
    102 H102      -75.9104   28.2566  -74.3697 H         1 UNK         0.0547 
    103 H103      -78.2347   27.5470  -74.1444 H         1 UNK         0.0837 
    104 H104      -77.9944   28.4089  -75.6528 H         1 UNK         0.0837 
    105 H105      -78.1544   26.6615  -75.6620 H         1 UNK         0.0837 
    106 H106      -76.6060   25.4894  -74.0417 H         1 UNK         0.3020 
    107 H107      -73.4181   24.3723  -73.0214 H         1 UNK         0.1245 
    108 H108      -74.3527   25.5413  -70.9439 H         1 UNK         0.0781 
    109 H109      -74.2859   23.8077  -70.9049 H         1 UNK         0.0781 
    110 H110      -75.8928   25.9017  -69.1081 H         1 UNK         0.0836 
    111 H111      -77.6047   25.5883  -69.1027 H         1 UNK         0.0836 
    112 H112      -75.9777   23.1130  -73.0768 H         1 UNK         0.3022 
    113 H113      -75.8643   22.0897  -76.4997 H         1 UNK         0.0747 
    114 H114      -76.1281   19.8618  -75.4456 H         1 UNK         0.0793 
    115 H115      -74.4739   20.4200  -75.2655 H         1 UNK         0.0793 
    116 H116      -75.5727   20.4940  -73.8951 H         1 UNK         0.0793 
    117 H117      -77.7554   21.5892  -74.4291 H         1 UNK         0.3047 
    118 H118      -79.8746   22.4399  -74.7906 H         1 UNK         0.0822 
    119 H119      -78.8640   23.4508  -72.7449 H         1 UNK         0.0807 
    120 H120      -80.4352   24.1750  -73.0318 H         1 UNK         0.0807 
    121 H121      -78.9714   25.0607  -73.4454 H         1 UNK         0.0807 
    122 H122      -79.7868   24.9654  -76.2670 H         1 UNK         0.2946 
    123 H123      -81.6521   25.2079  -77.7409 H         1 UNK         0.1144 
    124 H124      -84.1011   25.2335  -78.0939 H         1 UNK         0.0793 
    125 H125      -84.3718   24.4501  -76.5392 H         1 UNK         0.0793 
    126 H126      -83.5521   23.5854  -77.8334 H         1 UNK         0.0793 
    127 H127      -83.3944   26.5420  -75.7636 H         1 UNK         0.2896 
@<TRIPOS>BOND
     1    1    2 1    
     2    1   67 1    
     3    1   68 1    
     4    1   69 1    
     5    2    3 2    
     6    2    4 am   BACKBONE|DICT|INTERRES
     7    4    5 1    
     8    4   70 1    
     9    5    6 1    
    10    5   65 1    
    11    5   71 1    
    12    6    7 1    
    13    6   72 1    
    14    6   73 1    
    15    7    8 1    
    16    8    9 1    
    17    8   74 1    
    18    8   75 1    
    19    9   10 ar   
    20    9   14 ar   
    21   10   11 ar   
    22   10   76 1    
    23   11   12 ar   
    24   11   48 1    
    25   12   13 ar   
    26   12   77 1    
    27   13   14 ar   
    28   13   15 1    
    29   14   78 1    
    30   15   16 1    
    31   15   79 1    
    32   15   80 1    
    33   16   17 1    
    34   17   18 1    
    35   17   81 1    
    36   17   82 1    
    37   18   19 1    
    38   18   22 1    
    39   18   83 1    
    40   19   20 am   BACKBONE|DICT|INTERRES
    41   19   21 2    
    42   20   84 1    
    43   20   85 1    
    44   22   23 am   BACKBONE|DICT|INTERRES
    45   22   86 1    
    46   23   24 2    
    47   23   25 1    
    48   25   26 1    
    49   25   27 1    
    50   25   87 1    
    51   26   88 1    
    52   26   89 1    
    53   26   90 1    
    54   27   28 am   BACKBONE|DICT|INTERRES
    55   27   91 1    
    56   28   29 2    
    57   28   30 1    
    58   30   31 1    
    59   30   32 1    
    60   30   92 1    
    61   31   93 1    
    62   31   94 1    
    63   31   95 1    
    64   32   33 am   BACKBONE|DICT|INTERRES
    65   32   96 1    
    66   33   34 2    
    67   33   35 1    
    68   35   36 1    
    69   35   37 1    
    70   35   97 1    
    71   36   98 1    
    72   36   99 1    
    73   36  100 1    
    74   37   38 am   BACKBONE|DICT|INTERRES
    75   37  101 1    
    76   38   39 2    
    77   38   40 1    
    78   40   41 1    
    79   40   42 1    
    80   40  102 1    
    81   41  103 1    
    82   41  104 1    
    83   41  105 1    
    84   42   43 am   BACKBONE|DICT|INTERRES
    85   42  106 1    
    86   43   44 2    
    87   43   45 1    
    88   45   46 1    
    89   45   49 1    
    90   45  107 1    
    91   46   47 1    
    92   46  108 1    
    93   46  109 1    
    94   47   48 1    
    95   48  110 1    
    96   48  111 1    
    97   49   50 am   BACKBONE|DICT|INTERRES
    98   49  112 1    
    99   50   51 2    
   100   50   52 1    
   101   52   53 1    
   102   52   54 1    
   103   52  113 1    
   104   53  114 1    
   105   53  115 1    
   106   53  116 1    
   107   54   55 am   BACKBONE|DICT|INTERRES
   108   54  117 1    
   109   55   56 2    
   110   55   57 1    
   111   57   58 1    
   112   57   59 1    
   113   57  118 1    
   114   58  119 1    
   115   58  120 1    
   116   58  121 1    
   117   59   60 am   BACKBONE|DICT|INTERRES
   118   59  122 1    
   119   60   61 2    
   120   60   62 1    
   121   62   63 1    
   122   62   64 1    
   123   62  123 1    
   124   63  124 1    
   125   63  125 1    
   126   63  126 1    
   127   64   65 am   BACKBONE|DICT|INTERRES
   128   64  127 1    
   129   65   66 2    
@<TRIPOS>SUBSTRUCTURE
     1 UNK         1 GROUP             0       ****    0 ROOT    
