@<TRIPOS>MOLECULE
3R135
127   129    1
SMALL
USER_CHARGES


@<TRIPOS>ATOM
      1 CA        -81.8464   21.8287  -72.7966 C.3       0 UNK        -0.1998 
      2 C         -81.2840   23.2417  -72.7824 C.2       0 UNK         0.4909 
      3 O         -80.0926   23.4248  -73.0275 O.2       0 UNK        -0.5240 
      4 N         -82.1382   24.2382  -72.5110 N.am      1 UNK        -0.4739 
      5 CA        -81.8137   25.6684  -72.4146 C.3       1 UNK         0.0864 
      6 C6        -80.9878   26.0062  -71.1421 C.3       11 UNK        -0.0881 
      7 S7        -81.4744   27.6192  -70.4476 S.3       11 UNK        -0.2682 
      8 C8        -79.9089   28.1985  -69.7187 C.3       11 UNK         0.0289 
      9 C9        -78.8950   28.6927  -70.7459 C.ar      11 UNK        -0.0687 
     10 C10       -79.2705   29.5846  -71.7574 C.ar      11 UNK        -0.0823 
     11 C11       -78.3249   30.0964  -72.6523 C.ar      11 UNK        -0.0830 
     12 C12       -76.9843   29.7217  -72.5106 C.ar      11 UNK        -0.1021 
     13 C13       -76.5971   28.8199  -71.5152 C.ar      11 UNK        -0.0753 
     14 C14       -77.5562   28.3058  -70.6390 C.ar      11 UNK        -0.0933 
     15 C15       -75.1376   28.4238  -71.3745 C.3       11 UNK         0.0166 
     16 S16       -74.2080   29.7248  -70.5060 S.3       11 UNK        -0.2615 
     17 C17       -72.4959   29.1030  -70.6121 C.3       11 UNK        -0.0865 
     18 CA        -71.7196   29.7269  -71.8025 C.3       10 UNK         0.0862 
     19 C         -70.1895   29.4544  -71.6918 C.2       10 UNK         0.5551 
     20 N         -69.5408   28.8220  -72.6632 N.am      10 UNK        -0.7319 
     21 O         -69.5729   29.8361  -70.7001 O.2       10 UNK        -0.5018 
     22 N         -72.3123   29.3187  -73.0830 N.am      10 UNK        -0.4509 
     23 C         -72.2465   30.0002  -74.2316 C.2       10 UNK         0.4899 
     24 O         -71.7430   31.1194  -74.3387 O.2       10 UNK        -0.4839 
     25 CA        -72.8444   29.2927  -75.4667 C.3       9 UNK         0.0222 
     26 CB        -72.2612   29.8196  -76.7942 C.3       9 UNK        -0.1966 
     27 N         -72.7481   27.8248  -75.4084 N.am      9 UNK        -0.4218 
     28 C         -71.6272   27.0975  -75.2727 C.2       9 UNK         0.5020 
     29 O         -70.4986   27.5799  -75.1713 O.2       9 UNK        -0.5274 
     30 CA        -71.7943   25.5767  -75.1952 C.3       8 UNK         0.0270 
     31 CB        -72.1622   25.1445  -73.7645 C.3       8 UNK        -0.1976 
     32 N         -72.8050   25.0948  -76.1390 N.am      8 UNK        -0.4313 
     33 C         -72.5190   24.6465  -77.3680 C.2       8 UNK         0.5041 
     34 O         -71.3837   24.6298  -77.8466 O.2       8 UNK        -0.5577 
     35 CA        -73.6817   24.0809  -78.1933 C.3       7 UNK         0.0284 
     36 CB        -74.0978   22.6994  -77.6601 C.3       7 UNK        -0.1958 
     37 N         -74.8473   24.9651  -78.2448 N.am      7 UNK        -0.4454 
     38 C         -74.9452   26.0256  -79.0585 C.2       7 UNK         0.5089 
     39 O         -74.0188   26.4449  -79.7533 O.2       7 UNK        -0.5125 
     40 CA        -76.3218   26.7055  -79.1550 C.3       6 UNK         0.0408 
     41 CB        -77.3169   25.8161  -79.9186 C.3       6 UNK        -0.1791 
     42 N         -76.8765   27.0480  -77.8475 N.am      6 UNK        -0.4762 
     43 C         -76.4510   28.0679  -77.0905 C.2       6 UNK         0.5007 
     44 O         -75.5769   28.8582  -77.4445 O.2       6 UNK        -0.5032 
     45 CA        -77.0869   28.2163  -75.6919 C.3       5 UNK         0.0783 
     46 C46       -78.3677   29.0916  -75.7226 C.3       11 UNK        -0.0857 
     47 S47       -77.9825   30.8378  -75.3649 S.3       11 UNK        -0.2512 
     48 C48       -78.7706   31.0820  -73.7330 C.3       11 UNK         0.0225 
     49 N         -77.3120   26.9284  -75.0316 N.am      5 UNK        -0.4615 
     50 C         -76.3354   26.0738  -74.7007 C.2       4 UNK         0.5053 
     51 O         -75.1387   26.2913  -74.8961 O.2       4 UNK        -0.5105 
     52 CA        -76.7659   24.7309  -74.0935 C.3       4 UNK         0.0263 
     53 CB        -77.0534   24.8914  -72.5932 C.3       4 UNK        -0.1981 
     54 N         -77.9337   24.1616  -74.7725 N.am      4 UNK        -0.4224 
     55 C         -77.9509   23.7970  -76.0641 C.2       3 UNK         0.4895 
     56 O         -76.9672   23.8401  -76.8006 O.2       3 UNK        -0.5091 
     57 CA        -79.3017   23.3754  -76.6593 C.3       3 UNK         0.0250 
     58 CB        -79.6752   21.9452  -76.2389 C.3       3 UNK        -0.1996 
     59 N         -80.3707   24.3110  -76.3059 N.am      3 UNK        -0.4254 
     60 C         -80.4246   25.5863  -76.7203 C.2       2 UNK         0.5004 
     61 O         -79.6034   26.0945  -77.4820 O.2       2 UNK        -0.5226 
     62 CA        -81.5690   26.4540  -76.1720 C.3       2 UNK         0.0269 
     63 CB        -82.7840   26.4009  -77.1115 C.3       2 UNK        -0.1926 
     64 N         -81.9806   26.0767  -74.8170 N.am      2 UNK        -0.4687 
     65 C         -81.2060   26.2064  -73.7299 C.2       1 UNK         0.5165 
     66 O         -80.0605   26.6600  -73.7680 O.2       1 UNK        -0.5079 
     67 H67       -81.8341   21.4278  -73.8094 H         1 UNK         0.0900 
     68 H68       -81.2406   21.1792  -72.1654 H         1 UNK         0.0900 
     69 H69       -82.8719   21.7946  -72.4294 H         1 UNK         0.0900 
     70 H70       -83.1075   24.0095  -72.3365 H         1 UNK         0.2959 
     71 H71       -82.7842   26.1593  -72.3210 H         1 UNK         0.1079 
     72 H72       -81.1741   25.2653  -70.3632 H         1 UNK         0.0837 
     73 H73       -79.9132   25.9683  -71.3254 H         1 UNK         0.0837 
     74 H74       -80.1299   29.0201  -69.0363 H         1 UNK         0.0685 
     75 H75       -79.4890   27.3975  -69.1080 H         1 UNK         0.0685 
     76 H76       -80.3044   29.8909  -71.8375 H         1 UNK         0.1434 
     77 H77       -76.2356   30.1370  -73.1705 H         1 UNK         0.1329 
     78 H78       -77.2530   27.6253  -69.8552 H         1 UNK         0.1335 
     79 H79       -75.0438   27.4834  -70.8292 H         1 UNK         0.0680 
     80 H80       -74.7168   28.2516  -72.3652 H         1 UNK         0.0680 
     81 H81       -72.0111   29.3533  -69.6663 H         1 UNK         0.1032 
     82 H82       -72.4928   28.0129  -70.6690 H         1 UNK         0.1032 
     83 H83       -71.8217   30.8112  -71.7237 H         1 UNK         0.0461 
     84 H84       -70.0154   28.5075  -73.5032 H         1 UNK         0.3453 
     85 H85       -68.5506   28.6650  -72.5658 H         1 UNK         0.3453 
     86 H86       -72.7219   28.3985  -73.1053 H         1 UNK         0.2984 
     87 H87       -73.9085   29.5287  -75.4546 H         1 UNK         0.0554 
     88 H88       -72.4480   30.8879  -76.9085 H         1 UNK         0.0847 
     89 H89       -72.7171   29.3207  -77.6498 H         1 UNK         0.0847 
     90 H90       -71.1829   29.6681  -76.8513 H         1 UNK         0.0847 
     91 H91       -73.6333   27.3226  -75.4149 H         1 UNK         0.3141 
     92 H92       -70.8271   25.1270  -75.4309 H         1 UNK         0.0743 
     93 H93       -73.1074   25.5724  -73.4310 H         1 UNK         0.0784 
     94 H94       -72.2429   24.0600  -73.6893 H         1 UNK         0.0784 
     95 H95       -71.3958   25.4606  -73.0553 H         1 UNK         0.0784 
     96 H96       -73.7730   25.1498  -75.8396 H         1 UNK         0.3213 
     97 H97       -73.3194   23.9391  -79.2143 H         1 UNK         0.0855 
     98 H98       -74.4727   22.7536  -76.6373 H         1 UNK         0.0814 
     99 H99       -73.2524   22.0101  -77.6609 H         1 UNK         0.0814 
    100 H100      -74.8788   22.2554  -78.2776 H         1 UNK         0.0814 
    101 H101      -75.6656   24.6720  -77.7109 H         1 UNK         0.3105 
    102 H102      -76.1987   27.6281  -79.7264 H         1 UNK         0.0547 
    103 H103      -76.9277   25.5471  -80.9014 H         1 UNK         0.0837 
    104 H104      -77.5268   24.8889  -79.3841 H         1 UNK         0.0837 
    105 H105      -78.2656   26.3298  -80.0746 H         1 UNK         0.0837 
    106 H106      -77.6532   26.4828  -77.5155 H         1 UNK         0.3020 
    107 H107      -76.3345   28.7172  -75.0806 H         1 UNK         0.1245 
    108 H108      -79.0906   28.7473  -74.9831 H         1 UNK         0.0781 
    109 H109      -78.8883   29.0249  -76.6802 H         1 UNK         0.0781 
    110 H110      -79.8519   31.0298  -73.8704 H         1 UNK         0.0836 
    111 H111      -78.5541   32.0942  -73.3896 H         1 UNK         0.0836 
    112 H112      -78.2689   26.6994  -74.7817 H         1 UNK         0.3022 
    113 H113      -75.9376   24.0293  -74.2116 H         1 UNK         0.0747 
    114 H114      -77.3351   23.9419  -72.1378 H         1 UNK         0.0793 
    115 H115      -76.1738   25.2604  -72.0643 H         1 UNK         0.0793 
    116 H116      -77.8615   25.6010  -72.4144 H         1 UNK         0.0793 
    117 H117      -78.7812   24.0595  -74.2167 H         1 UNK         0.3047 
    118 H118      -79.2005   23.3883  -77.7469 H         1 UNK         0.0822 
    119 H119      -80.6252   21.6364  -76.6752 H         1 UNK         0.0807 
    120 H120      -79.7508   21.8427  -75.1569 H         1 UNK         0.0807 
    121 H121      -78.9188   21.2353  -76.5763 H         1 UNK         0.0807 
    122 H122      -81.0709   23.9882  -75.6553 H         1 UNK         0.2946 
    123 H123      -81.2054   27.4837  -76.1388 H         1 UNK         0.1144 
    124 H124      -83.5711   27.0792  -76.7815 H         1 UNK         0.0793 
    125 H125      -83.2069   25.3973  -77.1714 H         1 UNK         0.0793 
    126 H126      -82.5062   26.6985  -78.1238 H         1 UNK         0.0793 
    127 H127      -82.9010   25.6735  -74.7137 H         1 UNK         0.2896 
@<TRIPOS>BOND
     1    1    2 1    
     2    1   67 1    
     3    1   68 1    
     4    1   69 1    
     5    2    3 2    
     6    2    4 am   BACKBONE|DICT|INTERRES
     7    4    5 1    
     8    4   70 1    
     9    5    6 1    
    10    5   65 1    
    11    5   71 1    
    12    6    7 1    
    13    6   72 1    
    14    6   73 1    
    15    7    8 1    
    16    8    9 1    
    17    8   74 1    
    18    8   75 1    
    19    9   10 ar   
    20    9   14 ar   
    21   10   11 ar   
    22   10   76 1    
    23   11   12 ar   
    24   11   48 1    
    25   12   13 ar   
    26   12   77 1    
    27   13   14 ar   
    28   13   15 1    
    29   14   78 1    
    30   15   16 1    
    31   15   79 1    
    32   15   80 1    
    33   16   17 1    
    34   17   18 1    
    35   17   81 1    
    36   17   82 1    
    37   18   19 1    
    38   18   22 1    
    39   18   83 1    
    40   19   20 am   BACKBONE|DICT|INTERRES
    41   19   21 2    
    42   20   84 1    
    43   20   85 1    
    44   22   23 am   BACKBONE|DICT|INTERRES
    45   22   86 1    
    46   23   24 2    
    47   23   25 1    
    48   25   26 1    
    49   25   27 1    
    50   25   87 1    
    51   26   88 1    
    52   26   89 1    
    53   26   90 1    
    54   27   28 am   BACKBONE|DICT|INTERRES
    55   27   91 1    
    56   28   29 2    
    57   28   30 1    
    58   30   31 1    
    59   30   32 1    
    60   30   92 1    
    61   31   93 1    
    62   31   94 1    
    63   31   95 1    
    64   32   33 am   BACKBONE|DICT|INTERRES
    65   32   96 1    
    66   33   34 2    
    67   33   35 1    
    68   35   36 1    
    69   35   37 1    
    70   35   97 1    
    71   36   98 1    
    72   36   99 1    
    73   36  100 1    
    74   37   38 am   BACKBONE|DICT|INTERRES
    75   37  101 1    
    76   38   39 2    
    77   38   40 1    
    78   40   41 1    
    79   40   42 1    
    80   40  102 1    
    81   41  103 1    
    82   41  104 1    
    83   41  105 1    
    84   42   43 am   BACKBONE|DICT|INTERRES
    85   42  106 1    
    86   43   44 2    
    87   43   45 1    
    88   45   46 1    
    89   45   49 1    
    90   45  107 1    
    91   46   47 1    
    92   46  108 1    
    93   46  109 1    
    94   47   48 1    
    95   48  110 1    
    96   48  111 1    
    97   49   50 am   BACKBONE|DICT|INTERRES
    98   49  112 1    
    99   50   51 2    
   100   50   52 1    
   101   52   53 1    
   102   52   54 1    
   103   52  113 1    
   104   53  114 1    
   105   53  115 1    
   106   53  116 1    
   107   54   55 am   BACKBONE|DICT|INTERRES
   108   54  117 1    
   109   55   56 2    
   110   55   57 1    
   111   57   58 1    
   112   57   59 1    
   113   57  118 1    
   114   58  119 1    
   115   58  120 1    
   116   58  121 1    
   117   59   60 am   BACKBONE|DICT|INTERRES
   118   59  122 1    
   119   60   61 2    
   120   60   62 1    
   121   62   63 1    
   122   62   64 1    
   123   62  123 1    
   124   63  124 1    
   125   63  125 1    
   126   63  126 1    
   127   64   65 am   BACKBONE|DICT|INTERRES
   128   64  127 1    
   129   65   66 2    
@<TRIPOS>SUBSTRUCTURE
     1 UNK         1 GROUP             0       ****    0 ROOT    
