@<TRIPOS>MOLECULE
3R135
127   129    1
SMALL
USER_CHARGES


@<TRIPOS>ATOM
      1 CA        -83.0100   26.6951  -70.0992 C.3       0 UNK        -0.1998 
      2 C         -82.2956   26.7971  -71.4377 C.2       0 UNK         0.4909 
      3 O         -81.2759   26.1373  -71.6333 O.2       0 UNK        -0.5240 
      4 N         -82.8308   27.6114  -72.3587 N.am      1 UNK        -0.4739 
      5 CA        -82.3302   27.9256  -73.7103 C.3       1 UNK         0.0864 
      6 C6        -80.9146   28.5609  -73.7293 C.3       11 UNK        -0.0881 
      7 S7        -80.8814   30.1983  -72.9234 S.3       11 UNK        -0.2682 
      8 C8        -80.0373   29.8480  -71.3463 C.3       11 UNK         0.0289 
      9 C9        -78.6041   29.3708  -71.5399 C.ar      11 UNK        -0.0687 
     10 C10       -78.2165   28.1060  -71.0880 C.ar      11 UNK        -0.0823 
     11 C11       -76.9005   27.6598  -71.2596 C.ar      11 UNK        -0.0830 
     12 C12       -75.9698   28.5056  -71.8718 C.ar      11 UNK        -0.1021 
     13 C13       -76.3420   29.7738  -72.3299 C.ar      11 UNK        -0.0753 
     14 C14       -77.6617   30.2000  -72.1550 C.ar      11 UNK        -0.0933 
     15 C15       -75.3254   30.7072  -72.9793 C.3       11 UNK         0.0166 
     16 S16       -74.3234   29.8937  -74.2681 S.3       11 UNK        -0.2615 
     17 C17       -73.6170   31.3389  -75.1368 C.3       11 UNK        -0.0865 
     18 CA        -72.2115   31.7776  -74.6444 C.3       10 UNK         0.0862 
     19 C         -72.2598   32.5363  -73.2859 C.2       10 UNK         0.5551 
     20 N         -71.5426   32.1040  -72.2558 N.am      10 UNK        -0.7319 
     21 O         -72.9525   33.5443  -73.1702 O.2       10 UNK        -0.5018 
     22 N         -71.2467   30.6685  -74.6991 N.am      10 UNK        -0.4509 
     23 C         -69.9356   30.7975  -74.9394 C.2       10 UNK         0.4899 
     24 O         -69.3890   31.8789  -75.1599 O.2       10 UNK        -0.4839 
     25 CA        -69.0698   29.5196  -74.9266 C.3       9 UNK         0.0222 
     26 CB        -68.0751   29.5572  -73.7534 C.3       9 UNK        -0.1966 
     27 N         -69.8220   28.2601  -74.8671 N.am      9 UNK        -0.4218 
     28 C         -70.5897   27.7638  -75.8465 C.2       9 UNK         0.5020 
     29 O         -70.7607   28.3268  -76.9309 O.2       9 UNK        -0.5274 
     30 CA        -71.2779   26.4195  -75.5615 C.3       8 UNK         0.0270 
     31 CB        -71.8936   26.3474  -74.1482 C.3       8 UNK        -0.1976 
     32 N         -72.3237   26.2016  -76.5549 N.am      8 UNK        -0.4313 
     33 C         -72.7323   25.0268  -77.0384 C.2       8 UNK         0.5041 
     34 O         -72.2501   23.9433  -76.7007 O.2       8 UNK        -0.5577 
     35 CA        -73.8878   25.0824  -78.0594 C.3       7 UNK         0.0284 
     36 CB        -74.1698   23.7124  -78.7039 C.3       7 UNK        -0.1958 
     37 N         -75.1206   25.5836  -77.4447 N.am      7 UNK        -0.4454 
     38 C         -75.3595   26.8581  -77.1046 C.2       7 UNK         0.5089 
     39 O         -74.6008   27.7871  -77.3868 O.2       7 UNK        -0.5125 
     40 CA        -76.6382   27.1495  -76.2980 C.3       6 UNK         0.0408 
     41 CB        -77.7999   27.5084  -77.2363 C.3       6 UNK        -0.1791 
     42 N         -77.0521   26.0530  -75.4190 N.am      6 UNK        -0.4762 
     43 C         -76.3503   25.5831  -74.3751 C.2       6 UNK         0.5007 
     44 O         -75.2385   25.9943  -74.0481 O.2       6 UNK        -0.5032 
     45 CA        -77.0032   24.4392  -73.5783 C.3       5 UNK         0.0783 
     46 C46       -78.1358   24.9636  -72.6509 C.3       11 UNK        -0.0857 
     47 S47       -77.6861   24.9555  -70.8839 S.3       11 UNK        -0.2512 
     48 C48       -76.4409   26.2883  -70.7669 C.3       11 UNK         0.0225 
     49 N         -77.4838   23.4132  -74.5043 N.am      5 UNK        -0.4615 
     50 C         -76.7254   22.4342  -75.0150 C.2       4 UNK         0.5053 
     51 O         -75.5585   22.2306  -74.6819 O.2       4 UNK        -0.5105 
     52 CA        -77.3689   21.5189  -76.0744 C.3       4 UNK         0.0263 
     53 CB        -77.8432   20.2060  -75.4304 C.3       4 UNK        -0.1981 
     54 N         -78.4923   22.1376  -76.7833 N.am      4 UNK        -0.4224 
     55 C         -78.3836   23.1703  -77.6310 C.2       3 UNK         0.4895 
     56 O         -77.3151   23.6938  -77.9407 O.2       3 UNK        -0.5091 
     57 CA        -79.6974   23.7581  -78.1740 C.3       3 UNK         0.0250 
     58 CB        -80.1563   22.9910  -79.4242 C.3       3 UNK        -0.1996 
     59 N         -80.7841   23.7902  -77.1862 N.am      3 UNK        -0.4254 
     60 C         -80.7252   24.4273  -76.0084 C.2       2 UNK         0.5004 
     61 O         -79.7209   25.0155  -75.5982 O.2       2 UNK        -0.5226 
     62 CA        -81.9704   24.3419  -75.1129 C.3       2 UNK         0.0269 
     63 CB        -81.8955   23.0992  -74.2112 C.3       2 UNK        -0.1926 
     64 N         -82.0874   25.5314  -74.2701 N.am      2 UNK        -0.4687 
     65 C         -82.4141   26.7516  -74.7102 C.2       1 UNK         0.5165 
     66 O         -82.7834   26.9745  -75.8646 O.2       1 UNK        -0.5079 
     67 H67       -83.8917   27.3341  -70.0562 H         1 UNK         0.0900 
     68 H68       -83.3252   25.6675  -69.9206 H         1 UNK         0.0900 
     69 H69       -82.3375   26.9901  -69.2942 H         1 UNK         0.0900 
     70 H70       -83.6873   28.0925  -72.1208 H         1 UNK         0.2959 
     71 H71       -83.0222   28.6753  -74.0985 H         1 UNK         0.1079 
     72 H72       -80.5784   28.7131  -74.7570 H         1 UNK         0.0837 
     73 H73       -80.1786   27.8943  -73.2784 H         1 UNK         0.0837 
     74 H74       -80.0264   30.7588  -70.7463 H         1 UNK         0.0685 
     75 H75       -80.6201   29.1195  -70.7822 H         1 UNK         0.0685 
     76 H76       -78.9444   27.4657  -70.6083 H         1 UNK         0.1434 
     77 H77       -74.9484   28.1735  -72.0004 H         1 UNK         0.1329 
     78 H78       -77.9626   31.1809  -72.4970 H         1 UNK         0.1335 
     79 H79       -74.6646   31.0987  -72.2051 H         1 UNK         0.0680 
     80 H80       -75.8354   31.5662  -73.4180 H         1 UNK         0.0680 
     81 H81       -73.5476   31.0682  -76.1917 H         1 UNK         0.1032 
     82 H82       -74.3189   32.1743  -75.1088 H         1 UNK         0.1032 
     83 H83       -71.8724   32.5296  -75.3596 H         1 UNK         0.0461 
     84 H84       -70.9697   31.2809  -72.3445 H         1 UNK         0.3453 
     85 H85       -71.5760   32.6070  -71.3832 H         1 UNK         0.3453 
     86 H86       -71.6256   29.7504  -74.5215 H         1 UNK         0.2984 
     87 H87       -68.4958   29.5184  -75.8555 H         1 UNK         0.0554 
     88 H88       -67.4627   30.4596  -73.7862 H         1 UNK         0.0847 
     89 H89       -67.3920   28.7081  -73.7830 H         1 UNK         0.0847 
     90 H90       -68.5850   29.5463  -72.7893 H         1 UNK         0.0847 
     91 H91       -69.7399   27.7303  -74.0111 H         1 UNK         0.3141 
     92 H92       -70.5180   25.6420  -75.6629 H         1 UNK         0.0743 
     93 H93       -72.6042   27.1577  -73.9779 H         1 UNK         0.0784 
     94 H94       -72.4297   25.4093  -74.0013 H         1 UNK         0.0784 
     95 H95       -71.1336   26.3991  -73.3685 H         1 UNK         0.0784 
     96 H96       -72.7738   27.0449  -76.9031 H         1 UNK         0.3213 
     97 H97       -73.5895   25.7689  -78.8548 H         1 UNK         0.0855 
     98 H98       -74.5017   22.9812  -77.9654 H         1 UNK         0.0814 
     99 H99       -73.2752   23.3127  -79.1831 H         1 UNK         0.0814 
    100 H100      -74.9418   23.7866  -79.4699 H         1 UNK         0.0814 
    101 H101      -75.8342   24.8920  -77.2378 H         1 UNK         0.3105 
    102 H102      -76.4347   28.0137  -75.6623 H         1 UNK         0.0547 
    103 H103      -77.5433   28.3617  -77.8653 H         1 UNK         0.0837 
    104 H104      -78.0516   26.6787  -77.8971 H         1 UNK         0.0837 
    105 H105      -78.6962   27.7752  -76.6758 H         1 UNK         0.0837 
    106 H106      -77.9773   25.6621  -75.5865 H         1 UNK         0.3020 
    107 H107      -76.2189   23.9929  -72.9621 H         1 UNK         0.1245 
    108 H108      -79.0199   24.3301  -72.7343 H         1 UNK         0.0781 
    109 H109      -78.4912   25.9570  -72.9325 H         1 UNK         0.0781 
    110 H110      -75.5497   25.9714  -71.3104 H         1 UNK         0.0836 
    111 H111      -76.1394   26.3845  -69.7233 H         1 UNK         0.0836 
    112 H112      -78.4125   23.5612  -74.8786 H         1 UNK         0.3022 
    113 H113      -76.5975   21.2814  -76.8103 H         1 UNK         0.0747 
    114 H114      -78.2277   19.5124  -76.1784 H         1 UNK         0.0793 
    115 H115      -77.0212   19.7036  -74.9183 H         1 UNK         0.0793 
    116 H116      -78.6291   20.3779  -74.6936 H         1 UNK         0.0793 
    117 H117      -79.4132   21.7735  -76.5873 H         1 UNK         0.3047 
    118 H118      -79.4942   24.7902  -78.4659 H         1 UNK         0.0822 
    119 H119      -81.0268   23.4615  -79.8817 H         1 UNK         0.0807 
    120 H120      -80.4147   21.9566  -79.1941 H         1 UNK         0.0807 
    121 H121      -79.3688   22.9700  -80.1792 H         1 UNK         0.0807 
    122 H122      -81.6391   23.3171  -77.4427 H         1 UNK         0.2946 
    123 H123      -82.8591   24.2747  -75.7447 H         1 UNK         0.1144 
    124 H124      -82.7808   23.0150  -73.5806 H         1 UNK         0.0793 
    125 H125      -81.0228   23.1254  -73.5576 H         1 UNK         0.0793 
    126 H126      -81.8337   22.1852  -74.8033 H         1 UNK         0.0793 
    127 H127      -81.7392   25.4675  -73.3166 H         1 UNK         0.2896 
@<TRIPOS>BOND
     1    1    2 1    
     2    1   67 1    
     3    1   68 1    
     4    1   69 1    
     5    2    3 2    
     6    2    4 am   BACKBONE|DICT|INTERRES
     7    4    5 1    
     8    4   70 1    
     9    5    6 1    
    10    5   65 1    
    11    5   71 1    
    12    6    7 1    
    13    6   72 1    
    14    6   73 1    
    15    7    8 1    
    16    8    9 1    
    17    8   74 1    
    18    8   75 1    
    19    9   10 ar   
    20    9   14 ar   
    21   10   11 ar   
    22   10   76 1    
    23   11   12 ar   
    24   11   48 1    
    25   12   13 ar   
    26   12   77 1    
    27   13   14 ar   
    28   13   15 1    
    29   14   78 1    
    30   15   16 1    
    31   15   79 1    
    32   15   80 1    
    33   16   17 1    
    34   17   18 1    
    35   17   81 1    
    36   17   82 1    
    37   18   19 1    
    38   18   22 1    
    39   18   83 1    
    40   19   20 am   BACKBONE|DICT|INTERRES
    41   19   21 2    
    42   20   84 1    
    43   20   85 1    
    44   22   23 am   BACKBONE|DICT|INTERRES
    45   22   86 1    
    46   23   24 2    
    47   23   25 1    
    48   25   26 1    
    49   25   27 1    
    50   25   87 1    
    51   26   88 1    
    52   26   89 1    
    53   26   90 1    
    54   27   28 am   BACKBONE|DICT|INTERRES
    55   27   91 1    
    56   28   29 2    
    57   28   30 1    
    58   30   31 1    
    59   30   32 1    
    60   30   92 1    
    61   31   93 1    
    62   31   94 1    
    63   31   95 1    
    64   32   33 am   BACKBONE|DICT|INTERRES
    65   32   96 1    
    66   33   34 2    
    67   33   35 1    
    68   35   36 1    
    69   35   37 1    
    70   35   97 1    
    71   36   98 1    
    72   36   99 1    
    73   36  100 1    
    74   37   38 am   BACKBONE|DICT|INTERRES
    75   37  101 1    
    76   38   39 2    
    77   38   40 1    
    78   40   41 1    
    79   40   42 1    
    80   40  102 1    
    81   41  103 1    
    82   41  104 1    
    83   41  105 1    
    84   42   43 am   BACKBONE|DICT|INTERRES
    85   42  106 1    
    86   43   44 2    
    87   43   45 1    
    88   45   46 1    
    89   45   49 1    
    90   45  107 1    
    91   46   47 1    
    92   46  108 1    
    93   46  109 1    
    94   47   48 1    
    95   48  110 1    
    96   48  111 1    
    97   49   50 am   BACKBONE|DICT|INTERRES
    98   49  112 1    
    99   50   51 2    
   100   50   52 1    
   101   52   53 1    
   102   52   54 1    
   103   52  113 1    
   104   53  114 1    
   105   53  115 1    
   106   53  116 1    
   107   54   55 am   BACKBONE|DICT|INTERRES
   108   54  117 1    
   109   55   56 2    
   110   55   57 1    
   111   57   58 1    
   112   57   59 1    
   113   57  118 1    
   114   58  119 1    
   115   58  120 1    
   116   58  121 1    
   117   59   60 am   BACKBONE|DICT|INTERRES
   118   59  122 1    
   119   60   61 2    
   120   60   62 1    
   121   62   63 1    
   122   62   64 1    
   123   62  123 1    
   124   63  124 1    
   125   63  125 1    
   126   63  126 1    
   127   64   65 am   BACKBONE|DICT|INTERRES
   128   64  127 1    
   129   65   66 2    
@<TRIPOS>SUBSTRUCTURE
     1 UNK         1 GROUP             0       ****    0 ROOT    
