@<TRIPOS>MOLECULE
3R135
127   129    1
SMALL
USER_CHARGES


@<TRIPOS>ATOM
      1 CA        -84.0580   27.3174  -70.7063 C.3       0 UNK        -0.1998 
      2 C         -82.9281   27.3366  -71.7241 C.2       0 UNK         0.4909 
      3 O         -81.8772   26.7461  -71.4747 O.2       0 UNK        -0.5240 
      4 N         -83.1414   28.0127  -72.8623 N.am      1 UNK        -0.4739 
      5 CA        -82.2283   28.1918  -74.0049 C.3       1 UNK         0.0864 
      6 C6        -80.8811   28.8779  -73.6552 C.3       11 UNK        -0.0881 
      7 S7        -81.1018   30.5553  -72.9631 S.3       11 UNK        -0.2682 
      8 C8        -80.6858   30.3283  -71.2013 C.3       11 UNK         0.0289 
      9 C9        -79.2332   29.9210  -71.0046 C.ar      11 UNK        -0.0687 
     10 C10       -78.9115   28.6007  -70.6725 C.ar      11 UNK        -0.0823 
     11 C11       -77.5766   28.2047  -70.5575 C.ar      11 UNK        -0.0830 
     12 C12       -76.5637   29.1517  -70.7242 C.ar      11 UNK        -0.1021 
     13 C13       -76.8717   30.4732  -71.0536 C.ar      11 UNK        -0.0753 
     14 C14       -78.2092   30.8562  -71.1867 C.ar      11 UNK        -0.0933 
     15 C15       -75.7499   31.4667  -71.3001 C.3       11 UNK         0.0166 
     16 S16       -75.1472   31.3430  -73.0167 S.3       11 UNK        -0.2615 
     17 C17       -73.3370   31.4452  -72.7810 C.3       11 UNK        -0.0865 
     18 CA        -72.5927   30.0986  -72.9987 C.3       10 UNK         0.0862 
     19 C         -72.9587   29.0046  -71.9582 C.2       10 UNK         0.5551 
     20 N         -73.4200   27.8240  -72.3562 N.am      10 UNK        -0.7319 
     21 O         -72.7929   29.2225  -70.7608 O.2       10 UNK        -0.5018 
     22 N         -72.6355   29.6375  -74.3940 N.am      10 UNK        -0.4509 
     23 C         -71.7978   30.0526  -75.3501 C.2       10 UNK         0.4899 
     24 O         -70.9805   30.9633  -75.2006 O.2       10 UNK        -0.4839 
     25 CA        -71.8712   29.2901  -76.6851 C.3       9 UNK         0.0222 
     26 CB        -70.7731   29.7057  -77.6862 C.3       9 UNK        -0.1966 
     27 N         -71.8729   27.8354  -76.4912 N.am      9 UNK        -0.4218 
     28 C         -70.9461   27.0774  -75.8817 C.2       9 UNK         0.5020 
     29 O         -69.8952   27.5167  -75.4127 O.2       9 UNK        -0.5274 
     30 CA        -71.2351   25.5672  -75.7576 C.3       8 UNK         0.0270 
     31 CB        -71.5971   25.2039  -74.3082 C.3       8 UNK        -0.1976 
     32 N         -72.3009   25.0972  -76.6470 N.am      8 UNK        -0.4313 
     33 C         -72.1822   24.9766  -77.9766 C.2       8 UNK         0.5041 
     34 O         -71.1275   25.1462  -78.5894 O.2       8 UNK        -0.5577 
     35 CA        -73.4662   24.6572  -78.7593 C.3       7 UNK         0.0284 
     36 CB        -73.7257   23.1425  -78.7762 C.3       7 UNK        -0.1958 
     37 N         -74.6432   25.3611  -78.2372 N.am      7 UNK        -0.4454 
     38 C         -74.7997   26.6935  -78.2320 C.2       7 UNK         0.5089 
     39 O         -73.9781   27.4789  -78.7019 O.2       7 UNK        -0.5125 
     40 CA        -76.0567   27.2542  -77.5473 C.3       6 UNK         0.0408 
     41 CB        -77.2791   27.1546  -78.4727 C.3       6 UNK        -0.1791 
     42 N         -76.3465   26.5933  -76.2757 N.am      6 UNK        -0.4762 
     43 C         -75.5844   26.6668  -75.1734 C.2       6 UNK         0.5007 
     44 O         -74.5553   27.3416  -75.0753 O.2       6 UNK        -0.5032 
     45 CA        -76.0474   25.8093  -73.9814 C.3       5 UNK         0.0783 
     46 C46       -77.1485   26.5598  -73.1981 C.3       11 UNK        -0.0857 
     47 S47       -77.7373   25.6677  -71.7145 S.3       11 UNK        -0.2512 
     48 C48       -77.2161   26.7424  -70.3304 C.3       11 UNK         0.0225 
     49 N         -76.4708   24.4766  -74.4211 N.am      5 UNK        -0.4615 
     50 C         -75.6571   23.5599  -74.9633 C.2       4 UNK         0.5053 
     51 O         -74.4503   23.7312  -75.1355 O.2       4 UNK        -0.5105 
     52 CA        -76.3089   22.2486  -75.4330 C.3       4 UNK         0.0263 
     53 CB        -76.4959   21.2844  -74.2510 C.3       4 UNK        -0.1981 
     54 N         -77.5951   22.4628  -76.1017 N.am      4 UNK        -0.4224 
     55 C         -77.7496   23.1337  -77.2528 C.2       3 UNK         0.4895 
     56 O         -76.8165   23.5995  -77.9029 O.2       3 UNK        -0.5091 
     57 CA        -79.1879   23.3669  -77.7435 C.3       3 UNK         0.0250 
     58 CB        -79.6442   22.2082  -78.6440 C.3       3 UNK        -0.1996 
     59 N         -80.1555   23.5590  -76.6587 N.am      3 UNK        -0.4254 
     60 C         -80.1060   24.5491  -75.7566 C.2       2 UNK         0.5004 
     61 O         -79.2145   25.4021  -75.7207 O.2       2 UNK        -0.5226 
     62 CA        -81.2050   24.5270  -74.6810 C.3       2 UNK         0.0269 
     63 CB        -80.8006   23.5918  -73.5294 C.3       2 UNK        -0.1926 
     64 N         -81.4923   25.8503  -74.1279 N.am      2 UNK        -0.4687 
     65 C         -82.0068   26.8874  -74.7991 C.2       1 UNK         0.5165 
     66 O         -82.3361   26.8376  -75.9856 O.2       1 UNK        -0.5079 
     67 H67       -84.3740   26.2919  -70.5172 H         1 UNK         0.0900 
     68 H68       -83.7197   27.7490  -69.7647 H         1 UNK         0.0900 
     69 H69       -84.9251   27.8830  -71.0466 H         1 UNK         0.0900 
     70 H70       -84.0426   28.4529  -72.9878 H         1 UNK         0.2959 
     71 H71       -82.7551   28.8627  -74.6861 H         1 UNK         0.1079 
     72 H72       -80.2944   28.2576  -72.9790 H         1 UNK         0.0837 
     73 H73       -80.2703   28.9833  -74.5540 H         1 UNK         0.0837 
     74 H74       -81.3584   29.5937  -70.7584 H         1 UNK         0.0685 
     75 H75       -80.8705   31.2650  -70.6736 H         1 UNK         0.0685 
     76 H76       -79.6962   27.8657  -70.5549 H         1 UNK         0.1434 
     77 H77       -75.5292   28.8514  -70.6414 H         1 UNK         0.1329 
     78 H78       -78.4542   31.8736  -71.4597 H         1 UNK         0.1335 
     79 H79       -76.0880   32.4864  -71.1098 H         1 UNK         0.0680 
     80 H80       -74.9442   31.2727  -70.5908 H         1 UNK         0.0680 
     81 H81       -73.1063   31.8467  -71.7931 H         1 UNK         0.1032 
     82 H82       -72.9527   32.1888  -73.4805 H         1 UNK         0.1032 
     83 H83       -71.5418   30.2952  -72.7760 H         1 UNK         0.0461 
     84 H84       -73.6105   27.1260  -71.6564 H         1 UNK         0.3453 
     85 H85       -73.6088   27.6326  -73.3299 H         1 UNK         0.3453 
     86 H86       -73.2991   28.9017  -74.6082 H         1 UNK         0.2984 
     87 H87       -72.8356   29.5413  -77.1287 H         1 UNK         0.0554 
     88 H88       -70.8342   30.7707  -77.9133 H         1 UNK         0.0847 
     89 H89       -70.8746   29.1673  -78.6286 H         1 UNK         0.0847 
     90 H90       -69.7734   29.5131  -77.2955 H         1 UNK         0.0847 
     91 H91       -72.7000   27.3656  -76.8366 H         1 UNK         0.3141 
     92 H92       -70.3150   25.0405  -76.0196 H         1 UNK         0.0743 
     93 H93       -70.8300   25.5451  -73.6116 H         1 UNK         0.0784 
     94 H94       -72.5404   25.6565  -74.0042 H         1 UNK         0.0784 
     95 H95       -71.6919   24.1250  -74.1833 H         1 UNK         0.0784 
     96 H96       -73.1858   24.8523  -76.2103 H         1 UNK         0.3213 
     97 H97       -73.3145   24.9880  -79.7890 H         1 UNK         0.0855 
     98 H98       -73.9239   22.7559  -77.7761 H         1 UNK         0.0814 
     99 H99       -72.8642   22.6024  -79.1713 H         1 UNK         0.0814 
    100 H100      -74.5798   22.8940  -79.4063 H         1 UNK         0.0814 
    101 H101      -75.4067   24.7782  -77.8978 H         1 UNK         0.3105 
    102 H102      -75.8781   28.3108  -77.3361 H         1 UNK         0.0547 
    103 H103      -78.1651   27.5883  -78.0085 H         1 UNK         0.0837 
    104 H104      -77.5097   26.1211  -78.7312 H         1 UNK         0.0837 
    105 H105      -77.1049   27.6919  -79.4057 H         1 UNK         0.0837 
    106 H106      -77.1905   26.0314  -76.2329 H         1 UNK         0.3020 
    107 H107      -75.1878   25.6767  -73.3214 H         1 UNK         0.1245 
    108 H108      -78.0185   26.7441  -73.8303 H         1 UNK         0.0781 
    109 H109      -76.7797   27.5472  -72.9230 H         1 UNK         0.0781 
    110 H110      -76.1410   26.6264  -70.1851 H         1 UNK         0.0836 
    111 H111      -77.6890   26.3931  -69.4117 H         1 UNK         0.0836 
    112 H112      -77.4588   24.2816  -74.3520 H         1 UNK         0.3022 
    113 H113      -75.6323   21.7813  -76.1516 H         1 UNK         0.0747 
    114 H114      -76.8799   20.3195  -74.5828 H         1 UNK         0.0793 
    115 H115      -75.5459   21.0972  -73.7480 H         1 UNK         0.0793 
    116 H116      -77.1857   21.6833  -73.5060 H         1 UNK         0.0793 
    117 H117      -78.4188   22.1081  -75.6392 H         1 UNK         0.3047 
    118 H118      -79.1825   24.2808  -78.3410 H         1 UNK         0.0822 
    119 H119      -80.6238   22.4056  -79.0799 H         1 UNK         0.0807 
    120 H120      -79.7026   21.2668  -78.0961 H         1 UNK         0.0807 
    121 H121      -78.9483   22.0609  -79.4714 H         1 UNK         0.0807 
    122 H122      -80.9130   22.8924  -76.6098 H         1 UNK         0.2946 
    123 H123      -82.1256   24.1541  -75.1354 H         1 UNK         0.1144 
    124 H124      -79.8870   23.9301  -73.0393 H         1 UNK         0.0793 
    125 H125      -80.6244   22.5760  -73.8855 H         1 UNK         0.0793 
    126 H126      -81.5825   23.5357  -72.7717 H         1 UNK         0.0793 
    127 H127      -81.3046   25.9913  -73.1388 H         1 UNK         0.2896 
@<TRIPOS>BOND
     1    1    2 1    
     2    1   67 1    
     3    1   68 1    
     4    1   69 1    
     5    2    3 2    
     6    2    4 am   BACKBONE|DICT|INTERRES
     7    4    5 1    
     8    4   70 1    
     9    5    6 1    
    10    5   65 1    
    11    5   71 1    
    12    6    7 1    
    13    6   72 1    
    14    6   73 1    
    15    7    8 1    
    16    8    9 1    
    17    8   74 1    
    18    8   75 1    
    19    9   10 ar   
    20    9   14 ar   
    21   10   11 ar   
    22   10   76 1    
    23   11   12 ar   
    24   11   48 1    
    25   12   13 ar   
    26   12   77 1    
    27   13   14 ar   
    28   13   15 1    
    29   14   78 1    
    30   15   16 1    
    31   15   79 1    
    32   15   80 1    
    33   16   17 1    
    34   17   18 1    
    35   17   81 1    
    36   17   82 1    
    37   18   19 1    
    38   18   22 1    
    39   18   83 1    
    40   19   20 am   BACKBONE|DICT|INTERRES
    41   19   21 2    
    42   20   84 1    
    43   20   85 1    
    44   22   23 am   BACKBONE|DICT|INTERRES
    45   22   86 1    
    46   23   24 2    
    47   23   25 1    
    48   25   26 1    
    49   25   27 1    
    50   25   87 1    
    51   26   88 1    
    52   26   89 1    
    53   26   90 1    
    54   27   28 am   BACKBONE|DICT|INTERRES
    55   27   91 1    
    56   28   29 2    
    57   28   30 1    
    58   30   31 1    
    59   30   32 1    
    60   30   92 1    
    61   31   93 1    
    62   31   94 1    
    63   31   95 1    
    64   32   33 am   BACKBONE|DICT|INTERRES
    65   32   96 1    
    66   33   34 2    
    67   33   35 1    
    68   35   36 1    
    69   35   37 1    
    70   35   97 1    
    71   36   98 1    
    72   36   99 1    
    73   36  100 1    
    74   37   38 am   BACKBONE|DICT|INTERRES
    75   37  101 1    
    76   38   39 2    
    77   38   40 1    
    78   40   41 1    
    79   40   42 1    
    80   40  102 1    
    81   41  103 1    
    82   41  104 1    
    83   41  105 1    
    84   42   43 am   BACKBONE|DICT|INTERRES
    85   42  106 1    
    86   43   44 2    
    87   43   45 1    
    88   45   46 1    
    89   45   49 1    
    90   45  107 1    
    91   46   47 1    
    92   46  108 1    
    93   46  109 1    
    94   47   48 1    
    95   48  110 1    
    96   48  111 1    
    97   49   50 am   BACKBONE|DICT|INTERRES
    98   49  112 1    
    99   50   51 2    
   100   50   52 1    
   101   52   53 1    
   102   52   54 1    
   103   52  113 1    
   104   53  114 1    
   105   53  115 1    
   106   53  116 1    
   107   54   55 am   BACKBONE|DICT|INTERRES
   108   54  117 1    
   109   55   56 2    
   110   55   57 1    
   111   57   58 1    
   112   57   59 1    
   113   57  118 1    
   114   58  119 1    
   115   58  120 1    
   116   58  121 1    
   117   59   60 am   BACKBONE|DICT|INTERRES
   118   59  122 1    
   119   60   61 2    
   120   60   62 1    
   121   62   63 1    
   122   62   64 1    
   123   62  123 1    
   124   63  124 1    
   125   63  125 1    
   126   63  126 1    
   127   64   65 am   BACKBONE|DICT|INTERRES
   128   64  127 1    
   129   65   66 2    
@<TRIPOS>SUBSTRUCTURE
     1 UNK         1 GROUP             0       ****    0 ROOT    
