@<TRIPOS>MOLECULE
3R135
127   129    1
SMALL
USER_CHARGES


@<TRIPOS>ATOM
      1 CA        -80.3517   31.2943  -74.6683 C.3       0 UNK        -0.1998 
      2 C         -79.4901   30.0589  -74.4591 C.2       0 UNK         0.4909 
      3 O         -78.2841   30.1098  -74.6911 O.2       0 UNK        -0.5240 
      4 N         -80.1016   28.9475  -74.0306 N.am      1 UNK        -0.4739 
      5 CA        -79.4210   27.6764  -73.7381 C.3       1 UNK         0.0864 
      6 C6        -80.1270   26.8786  -72.6063 C.3       11 UNK        -0.0881 
      7 S7        -80.4247   27.8698  -71.0965 S.3       11 UNK        -0.2682 
      8 C8        -79.0104   27.4298  -70.0275 C.3       11 UNK         0.0289 
      9 C9        -77.6678   27.7191  -70.6864 C.ar      11 UNK        -0.0687 
     10 C10       -76.7347   26.6926  -70.8583 C.ar      11 UNK        -0.0823 
     11 C11       -75.5381   26.9190  -71.5517 C.ar      11 UNK        -0.0830 
     12 C12       -75.2731   28.2016  -72.0424 C.ar      11 UNK        -0.1021 
     13 C13       -76.1807   29.2460  -71.8425 C.ar      11 UNK        -0.0753 
     14 C14       -77.3695   29.0029  -71.1519 C.ar      11 UNK        -0.0933 
     15 C15       -75.8913   30.6284  -72.3998 C.3       11 UNK         0.0166 
     16 S16       -74.8163   31.5720  -71.2790 S.3       11 UNK        -0.2615 
     17 C17       -74.4064   33.0109  -72.3297 C.3       11 UNK        -0.0865 
     18 CA        -72.9941   32.9393  -72.9713 C.3       10 UNK         0.0862 
     19 C         -71.8593   33.1791  -71.9329 C.2       10 UNK         0.5551 
     20 N         -71.6467   34.4253  -71.5317 N.am      10 UNK        -0.7319 
     21 O         -71.1914   32.2552  -71.4709 O.2       10 UNK        -0.5018 
     22 N         -72.8296   31.7059  -73.7524 N.am      10 UNK        -0.4509 
     23 C         -71.8412   31.4612  -74.6192 C.2       10 UNK         0.4899 
     24 O         -70.9796   32.2833  -74.9335 O.2       10 UNK        -0.4839 
     25 CA        -71.8087   30.0591  -75.2527 C.3       9 UNK         0.0222 
     26 CB        -70.9416   29.1110  -74.4087 C.3       9 UNK        -0.1966 
     27 N         -73.1265   29.4472  -75.4555 N.am      9 UNK        -0.4218 
     28 C         -74.0829   29.9010  -76.2773 C.2       9 UNK         0.5020 
     29 O         -74.0038   30.9583  -76.9052 O.2       9 UNK        -0.5274 
     30 CA        -75.2954   28.9686  -76.4771 C.3       8 UNK         0.0270 
     31 CB        -76.3999   29.6046  -77.3415 C.3       8 UNK        -0.1976 
     32 N         -74.8731   27.7106  -77.1003 N.am      8 UNK        -0.4313 
     33 C         -74.2802   26.7010  -76.4542 C.2       8 UNK         0.5041 
     34 O         -74.0894   26.6878  -75.2347 O.2       8 UNK        -0.5577 
     35 CA        -73.7427   25.5542  -77.3126 C.3       7 UNK         0.0284 
     36 CB        -72.3210   25.8789  -77.8115 C.3       7 UNK        -0.1958 
     37 N         -73.7352   24.3518  -76.4895 N.am      7 UNK        -0.4454 
     38 C         -73.6262   23.0932  -76.9282 C.2       7 UNK         0.5089 
     39 O         -73.4346   22.7879  -78.1059 O.2       7 UNK        -0.5125 
     40 CA        -73.7852   21.9802  -75.8750 C.3       6 UNK         0.0408 
     41 CB        -72.4269   21.6420  -75.2406 C.3       6 UNK        -0.1791 
     42 N         -74.7491   22.3100  -74.8183 N.am      6 UNK        -0.4762 
     43 C         -76.0578   22.5236  -75.0172 C.2       6 UNK         0.5007 
     44 O         -76.6006   22.4366  -76.1226 O.2       6 UNK        -0.5032 
     45 CA        -76.8768   22.9257  -73.7751 C.3       5 UNK         0.0783 
     46 C46       -76.4193   24.2934  -73.2047 C.3       11 UNK        -0.0857 
     47 S47       -75.1767   24.1161  -71.8842 S.3       11 UNK        -0.2512 
     48 C48       -74.5048   25.8132  -71.7832 C.3       11 UNK         0.0225 
     49 N         -78.3006   22.9571  -74.1072 N.am      5 UNK        -0.4615 
     50 C         -79.1585   21.9465  -73.9301 C.2       4 UNK         0.5053 
     51 O         -78.8682   20.8834  -73.3802 O.2       4 UNK        -0.5105 
     52 CA        -80.5834   22.1564  -74.4675 C.3       4 UNK         0.0263 
     53 CB        -81.3912   23.0704  -73.5321 C.3       4 UNK        -0.1981 
     54 N         -80.5847   22.7184  -75.8185 N.am      4 UNK        -0.4224 
     55 C         -80.1987   22.0723  -76.9260 C.2       3 UNK         0.4895 
     56 O         -79.8775   20.8834  -76.9423 O.2       3 UNK        -0.5091 
     57 CA        -80.1574   22.8704  -78.2453 C.3       3 UNK         0.0250 
     58 CB        -81.5077   22.7896  -78.9849 C.3       3 UNK        -0.1996 
     59 N         -79.6898   24.2614  -78.1185 N.am      3 UNK        -0.4254 
     60 C         -80.2777   25.2892  -77.4904 C.2       2 UNK         0.5004 
     61 O         -81.3723   25.2216  -76.9256 O.2       2 UNK        -0.5226 
     62 CA        -79.4954   26.6135  -77.4683 C.3       2 UNK         0.0269 
     63 CB        -79.9883   27.5485  -78.5844 C.3       2 UNK        -0.1926 
     64 N         -79.6097   27.3020  -76.1796 N.am      2 UNK        -0.4687 
     65 C         -79.2116   26.8060  -74.9980 C.2       1 UNK         0.5165 
     66 O         -78.6963   25.6940  -74.8809 O.2       1 UNK        -0.5079 
     67 H67       -80.2941   31.6200  -75.7065 H         1 UNK         0.0900 
     68 H68       -79.9973   32.1075  -74.0357 H         1 UNK         0.0900 
     69 H69       -81.3980   31.1081  -74.4271 H         1 UNK         0.0900 
     70 H70       -81.0945   28.9621  -73.8446 H         1 UNK         0.2959 
     71 H71       -78.4110   27.9031  -73.3952 H         1 UNK         0.1079 
     72 H72       -81.0940   26.5107  -72.9539 H         1 UNK         0.0837 
     73 H73       -79.5463   25.9941  -72.3372 H         1 UNK         0.0837 
     74 H74       -79.0790   27.9974  -69.0986 H         1 UNK         0.0685 
     75 H75       -79.0930   26.3768  -69.7535 H         1 UNK         0.0685 
     76 H76       -76.9568   25.7077  -70.4726 H         1 UNK         0.1434 
     77 H77       -74.3548   28.3895  -72.5815 H         1 UNK         0.1329 
     78 H78       -78.0851   29.8021  -71.0148 H         1 UNK         0.1335 
     79 H79       -76.8204   31.1797  -72.5538 H         1 UNK         0.0680 
     80 H80       -75.4271   30.5349  -73.3820 H         1 UNK         0.0680 
     81 H81       -74.5096   33.9161  -71.7284 H         1 UNK         0.1032 
     82 H82       -75.1573   33.1076  -73.1156 H         1 UNK         0.1032 
     83 H83       -72.9289   33.7602  -73.6885 H         1 UNK         0.0461 
     84 H84       -70.9238   34.6035  -70.8519 H         1 UNK         0.3453 
     85 H85       -72.1865   35.1932  -71.8998 H         1 UNK         0.3453 
     86 H86       -73.4585   30.9541  -73.5190 H         1 UNK         0.2984 
     87 H87       -71.3430   30.1581  -76.2354 H         1 UNK         0.0554 
     88 H88       -70.8261   28.1404  -74.8919 H         1 UNK         0.0847 
     89 H89       -71.3699   28.9453  -73.4192 H         1 UNK         0.0847 
     90 H90       -69.9408   29.5209  -74.2650 H         1 UNK         0.0847 
     91 H91       -73.2780   28.5286  -75.0479 H         1 UNK         0.3141 
     92 H92       -75.7214   28.7613  -75.4922 H         1 UNK         0.0743 
     93 H93       -76.0608   29.8026  -78.3589 H         1 UNK         0.0784 
     94 H94       -77.2762   28.9592  -77.3949 H         1 UNK         0.0784 
     95 H95       -76.7283   30.5538  -76.9159 H         1 UNK         0.0784 
     96 H96       -74.9427   27.6676  -78.1072 H         1 UNK         0.3213 
     97 H97       -74.4118   25.3987  -78.1617 H         1 UNK         0.0855 
     98 H98       -72.3108   26.7968  -78.4006 H         1 UNK         0.0814 
     99 H99       -71.9272   25.0862  -78.4474 H         1 UNK         0.0814 
    100 H100      -71.6270   26.0169  -76.9812 H         1 UNK         0.0814 
    101 H101      -73.9025   24.5295  -75.5064 H         1 UNK         0.3105 
    102 H102      -74.1511   21.0896  -76.3903 H         1 UNK         0.0547 
    103 H103      -71.6968   21.3720  -76.0049 H         1 UNK         0.0837 
    104 H104      -72.0178   22.4863  -74.6842 H         1 UNK         0.0837 
    105 H105      -72.5059   20.7954  -74.5584 H         1 UNK         0.0837 
    106 H106      -74.3793   22.4192  -73.8834 H         1 UNK         0.3020 
    107 H107      -76.7192   22.1520  -73.0198 H         1 UNK         0.1245 
    108 H108      -77.2705   24.8081  -72.7586 H         1 UNK         0.0781 
    109 H109      -76.0521   24.9671  -73.9827 H         1 UNK         0.0781 
    110 H110      -73.9487   26.0095  -72.7005 H         1 UNK         0.0836 
    111 H111      -73.7765   25.8481  -70.9723 H         1 UNK         0.0836 
    112 H112      -78.6105   23.8014  -74.5804 H         1 UNK         0.3022 
    113 H113      -81.0759   21.1823  -74.5033 H         1 UNK         0.0747 
    114 H114      -82.4261   23.1600  -73.8626 H         1 UNK         0.0793 
    115 H115      -81.4080   22.6735  -72.5161 H         1 UNK         0.0793 
    116 H116      -80.9673   24.0736  -73.4848 H         1 UNK         0.0793 
    117 H117      -80.8744   23.6869  -75.9257 H         1 UNK         0.3047 
    118 H118      -79.4152   22.3754  -78.8740 H         1 UNK         0.0822 
    119 H119      -81.4620   23.2930  -79.9506 H         1 UNK         0.0807 
    120 H120      -82.3181   23.2385  -78.4101 H         1 UNK         0.0807 
    121 H121      -81.7844   21.7514  -79.1736 H         1 UNK         0.0807 
    122 H122      -78.7775   24.4259  -78.5217 H         1 UNK         0.2946 
    123 H123      -78.4363   26.4000  -77.6294 H         1 UNK         0.1144 
    124 H124      -79.4160   28.4758  -78.6119 H         1 UNK         0.0793 
    125 H125      -81.0404   27.8069  -78.4565 H         1 UNK         0.0793 
    126 H126      -79.8858   27.0773  -79.5630 H         1 UNK         0.0793 
    127 H127      -80.0473   28.2111  -76.1823 H         1 UNK         0.2896 
@<TRIPOS>BOND
     1    1    2 1    
     2    1   67 1    
     3    1   68 1    
     4    1   69 1    
     5    2    3 2    
     6    2    4 am   BACKBONE|DICT|INTERRES
     7    4    5 1    
     8    4   70 1    
     9    5    6 1    
    10    5   65 1    
    11    5   71 1    
    12    6    7 1    
    13    6   72 1    
    14    6   73 1    
    15    7    8 1    
    16    8    9 1    
    17    8   74 1    
    18    8   75 1    
    19    9   10 ar   
    20    9   14 ar   
    21   10   11 ar   
    22   10   76 1    
    23   11   12 ar   
    24   11   48 1    
    25   12   13 ar   
    26   12   77 1    
    27   13   14 ar   
    28   13   15 1    
    29   14   78 1    
    30   15   16 1    
    31   15   79 1    
    32   15   80 1    
    33   16   17 1    
    34   17   18 1    
    35   17   81 1    
    36   17   82 1    
    37   18   19 1    
    38   18   22 1    
    39   18   83 1    
    40   19   20 am   BACKBONE|DICT|INTERRES
    41   19   21 2    
    42   20   84 1    
    43   20   85 1    
    44   22   23 am   BACKBONE|DICT|INTERRES
    45   22   86 1    
    46   23   24 2    
    47   23   25 1    
    48   25   26 1    
    49   25   27 1    
    50   25   87 1    
    51   26   88 1    
    52   26   89 1    
    53   26   90 1    
    54   27   28 am   BACKBONE|DICT|INTERRES
    55   27   91 1    
    56   28   29 2    
    57   28   30 1    
    58   30   31 1    
    59   30   32 1    
    60   30   92 1    
    61   31   93 1    
    62   31   94 1    
    63   31   95 1    
    64   32   33 am   BACKBONE|DICT|INTERRES
    65   32   96 1    
    66   33   34 2    
    67   33   35 1    
    68   35   36 1    
    69   35   37 1    
    70   35   97 1    
    71   36   98 1    
    72   36   99 1    
    73   36  100 1    
    74   37   38 am   BACKBONE|DICT|INTERRES
    75   37  101 1    
    76   38   39 2    
    77   38   40 1    
    78   40   41 1    
    79   40   42 1    
    80   40  102 1    
    81   41  103 1    
    82   41  104 1    
    83   41  105 1    
    84   42   43 am   BACKBONE|DICT|INTERRES
    85   42  106 1    
    86   43   44 2    
    87   43   45 1    
    88   45   46 1    
    89   45   49 1    
    90   45  107 1    
    91   46   47 1    
    92   46  108 1    
    93   46  109 1    
    94   47   48 1    
    95   48  110 1    
    96   48  111 1    
    97   49   50 am   BACKBONE|DICT|INTERRES
    98   49  112 1    
    99   50   51 2    
   100   50   52 1    
   101   52   53 1    
   102   52   54 1    
   103   52  113 1    
   104   53  114 1    
   105   53  115 1    
   106   53  116 1    
   107   54   55 am   BACKBONE|DICT|INTERRES
   108   54  117 1    
   109   55   56 2    
   110   55   57 1    
   111   57   58 1    
   112   57   59 1    
   113   57  118 1    
   114   58  119 1    
   115   58  120 1    
   116   58  121 1    
   117   59   60 am   BACKBONE|DICT|INTERRES
   118   59  122 1    
   119   60   61 2    
   120   60   62 1    
   121   62   63 1    
   122   62   64 1    
   123   62  123 1    
   124   63  124 1    
   125   63  125 1    
   126   63  126 1    
   127   64   65 am   BACKBONE|DICT|INTERRES
   128   64  127 1    
   129   65   66 2    
@<TRIPOS>SUBSTRUCTURE
     1 UNK         1 GROUP             0       ****    0 ROOT    
