@<TRIPOS>MOLECULE
3R135
127   129    1
SMALL
USER_CHARGES


@<TRIPOS>ATOM
      1 CA        -81.7568   24.1727  -69.5667 C.3       0 UNK        -0.1998 
      2 C         -82.2022   24.6617  -70.9369 C.2       0 UNK         0.4909 
      3 O         -83.1717   24.1393  -71.4890 O.2       0 UNK        -0.5240 
      4 N         -81.5063   25.6655  -71.4835 N.am      1 UNK        -0.4739 
      5 CA        -81.7475   26.2148  -72.8221 C.3       1 UNK         0.0864 
      6 C6        -81.1567   27.6367  -72.9725 C.3       11 UNK        -0.0881 
      7 S7        -82.0127   28.8518  -71.9162 S.3       11 UNK        -0.2682 
      8 C8        -80.7925   29.1210  -70.5852 C.3       11 UNK         0.0289 
      9 C9        -79.4298   29.6268  -71.0585 C.ar      11 UNK        -0.0687 
     10 C10       -79.3007   30.4847  -72.1571 C.ar      11 UNK        -0.0823 
     11 C11       -78.0446   30.9418  -72.5657 C.ar      11 UNK        -0.0830 
     12 C12       -76.9087   30.5624  -71.8430 C.ar      11 UNK        -0.1021 
     13 C13       -77.0213   29.7106  -70.7383 C.ar      11 UNK        -0.0753 
     14 C14       -78.2827   29.2427  -70.3592 C.ar      11 UNK        -0.0933 
     15 C15       -75.7970   29.3207  -69.9206 C.3       11 UNK         0.0166 
     16 S16       -74.6148   28.3153  -70.8711 S.3       11 UNK        -0.2615 
     17 C17       -73.2941   29.5455  -71.1392 C.3       11 UNK        -0.0865 
     18 CA        -72.1053   29.0578  -72.0065 C.3       10 UNK         0.0862 
     19 C         -71.2643   27.9227  -71.3504 C.2       10 UNK         0.5551 
     20 N         -70.7582   26.9497  -72.0990 N.am      10 UNK        -0.7319 
     21 O         -71.0378   27.9376  -70.1426 O.2       10 UNK        -0.5018 
     22 N         -72.5153   28.7756  -73.3922 N.am      10 UNK        -0.4509 
     23 C         -71.8856   29.2470  -74.4757 C.2       10 UNK         0.4899 
     24 O         -70.9473   30.0453  -74.4313 O.2       10 UNK        -0.4839 
     25 CA        -72.3744   28.7181  -75.8380 C.3       9 UNK         0.0222 
     26 CB        -71.4905   29.1814  -77.0145 C.3       9 UNK        -0.1966 
     27 N         -72.5330   27.2592  -75.8808 N.am      9 UNK        -0.4218 
     28 C         -71.6295   26.3246  -75.5460 C.2       9 UNK         0.5020 
     29 O         -70.5207   26.5701  -75.0698 O.2       9 UNK        -0.5274 
     30 CA        -72.0281   24.8572  -75.7716 C.3       8 UNK         0.0270 
     31 CB        -72.5602   24.2331  -74.4723 C.3       8 UNK        -0.1976 
     32 N         -73.0180   24.6863  -76.8385 N.am      8 UNK        -0.4313 
     33 C         -72.7426   24.7857  -78.1459 C.2       8 UNK         0.5041 
     34 O         -71.6248   25.0480  -78.5916 O.2       8 UNK        -0.5577 
     35 CA        -73.9013   24.5550  -79.1221 C.3       7 UNK         0.0284 
     36 CB        -74.3415   23.0800  -79.1259 C.3       7 UNK        -0.1958 
     37 N         -75.0469   25.4155  -78.8103 N.am      7 UNK        -0.4454 
     38 C         -75.5896   26.2823  -79.6768 C.2       7 UNK         0.5089 
     39 O         -75.1487   26.4861  -80.8089 O.2       7 UNK        -0.5125 
     40 CA        -76.8573   27.0375  -79.2415 C.3       6 UNK         0.0408 
     41 CB        -78.1110   26.2867  -79.7179 C.3       6 UNK        -0.1791 
     42 N         -76.9543   27.2928  -77.8012 N.am      6 UNK        -0.4762 
     43 C         -76.2376   28.2315  -77.1624 C.2       6 UNK         0.5007 
     44 O         -75.3498   28.8861  -77.7079 O.2       6 UNK        -0.5032 
     45 CA        -76.5537   28.4906  -75.6766 C.3       5 UNK         0.0783 
     46 C46       -77.6459   29.5810  -75.4927 C.3       11 UNK        -0.0857 
     47 S47       -76.8879   31.2009  -75.1150 S.3       11 UNK        -0.2512 
     48 C48       -77.9342   31.8650  -73.7746 C.3       11 UNK         0.0225 
     49 N         -76.8921   27.2443  -74.9893 N.am      5 UNK        -0.4615 
     50 C         -76.0470   26.5912  -74.1811 C.2       4 UNK         0.5053 
     51 O         -74.9048   26.9736  -73.9251 O.2       4 UNK        -0.5105 
     52 CA        -76.5401   25.2514  -73.6070 C.3       4 UNK         0.0263 
     53 CB        -77.4002   25.4907  -72.3560 C.3       4 UNK        -0.1981 
     54 N         -77.2841   24.4442  -74.5818 N.am      4 UNK        -0.4224 
     55 C         -76.7919   24.0461  -75.7667 C.2       3 UNK         0.4895 
     56 O         -75.6466   24.2892  -76.1457 O.2       3 UNK        -0.5091 
     57 CA        -77.7213   23.2907  -76.7307 C.3       3 UNK         0.0250 
     58 CB        -77.4797   21.7774  -76.6209 C.3       3 UNK        -0.1996 
     59 N         -79.1506   23.5629  -76.5673 N.am      3 UNK        -0.4254 
     60 C         -79.7464   24.7637  -76.5746 C.2       2 UNK         0.5004 
     61 O         -79.1416   25.8342  -76.6803 O.2       2 UNK        -0.5226 
     62 CA        -81.2748   24.7813  -76.3769 C.3       2 UNK         0.0269 
     63 CB        -81.9375   23.3843  -76.4006 C.3       2 UNK        -0.1926 
     64 N         -81.6566   25.4927  -75.1520 N.am      2 UNK        -0.4687 
     65 C         -81.1834   25.2836  -73.9132 C.2       1 UNK         0.5165 
     66 O         -80.3240   24.4413  -73.6323 O.2       1 UNK        -0.5079 
     67 H67       -82.5695   24.2772  -68.8483 H         1 UNK         0.0900 
     68 H68       -80.8996   24.7323  -69.1926 H         1 UNK         0.0900 
     69 H69       -81.4787   23.1204  -69.6170 H         1 UNK         0.0900 
     70 H70       -80.7019   26.0330  -70.9986 H         1 UNK         0.2959 
     71 H71       -82.8280   26.2727  -72.9753 H         1 UNK         0.1079 
     72 H72       -81.2564   27.9957  -73.9987 H         1 UNK         0.0837 
     73 H73       -80.0859   27.6347  -72.7657 H         1 UNK         0.0837 
     74 H74       -81.2033   29.8457  -69.8813 H         1 UNK         0.0685 
     75 H75       -80.6785   28.1869  -70.0334 H         1 UNK         0.0685 
     76 H76       -80.1815   30.7975  -72.7002 H         1 UNK         0.1434 
     77 H77       -75.9382   30.9281  -72.1463 H         1 UNK         0.1329 
     78 H78       -78.3747   28.5897  -69.5019 H         1 UNK         0.1335 
     79 H79       -75.3166   30.2236  -69.5413 H         1 UNK         0.0680 
     80 H80       -76.0917   28.7483  -69.0398 H         1 UNK         0.0680 
     81 H81       -72.9302   29.8769  -70.1648 H         1 UNK         0.1032 
     82 H82       -73.7307   30.4307  -71.6021 H         1 UNK         0.1032 
     83 H83       -71.4118   29.9001  -72.0201 H         1 UNK         0.0461 
     84 H84       -70.2072   26.2310  -71.6582 H         1 UNK         0.3453 
     85 H85       -70.8577   26.9601  -73.1074 H         1 UNK         0.3453 
     86 H86       -73.2749   28.1085  -73.5039 H         1 UNK         0.2984 
     87 H87       -73.3649   29.1463  -75.9839 H         1 UNK         0.0554 
     88 H88       -71.8932   28.8404  -77.9684 H         1 UNK         0.0847 
     89 H89       -70.4714   28.8031  -76.9260 H         1 UNK         0.0847 
     90 H90       -71.4339   30.2696  -77.0594 H         1 UNK         0.0847 
     91 H91       -73.4312   26.9280  -76.2002 H         1 UNK         0.3141 
     92 H92       -71.1242   24.3150  -76.0577 H         1 UNK         0.0743 
     93 H93       -73.4599   24.7376  -74.1241 H         1 UNK         0.0784 
     94 H94       -72.7977   23.1777  -74.6057 H         1 UNK         0.0784 
     95 H95       -71.8200   24.3022  -73.6740 H         1 UNK         0.0784 
     96 H96       -73.9709   24.4610  -76.5482 H         1 UNK         0.3213 
     97 H97       -73.5157   24.7793  -80.1190 H         1 UNK         0.0855 
     98 H98       -74.7281   22.7624  -78.1579 H         1 UNK         0.0814 
     99 H99       -73.5043   22.4253  -79.3715 H         1 UNK         0.0814 
    100 H100      -75.1190   22.9029  -79.8691 H         1 UNK         0.0814 
    101 H101      -75.4547   25.3158  -77.8878 H         1 UNK         0.3105 
    102 H102      -76.8457   28.0046  -79.7493 H         1 UNK         0.0547 
    103 H103      -78.0994   26.1572  -80.8009 H         1 UNK         0.0837 
    104 H104      -78.1827   25.2939  -79.2748 H         1 UNK         0.0837 
    105 H105      -79.0209   26.8324  -79.4677 H         1 UNK         0.0837 
    106 H106      -77.6915   26.7955  -77.3053 H         1 UNK         0.3020 
    107 H107      -75.6266   28.8738  -75.2454 H         1 UNK         0.1245 
    108 H108      -78.3180   29.3090  -74.6783 H         1 UNK         0.0781 
    109 H109      -78.2883   29.6824  -76.3700 H         1 UNK         0.0781 
    110 H110      -78.9204   32.0860  -74.1861 H         1 UNK         0.0836 
    111 H111      -77.5210   32.8208  -73.4498 H         1 UNK         0.0836 
    112 H112      -77.7889   26.8272  -75.2049 H         1 UNK         0.3022 
    113 H113      -75.6635   24.6748  -73.3077 H         1 UNK         0.0747 
    114 H114      -77.7086   24.5508  -71.8982 H         1 UNK         0.0793 
    115 H115      -76.8449   26.0536  -71.6040 H         1 UNK         0.0793 
    116 H116      -78.2989   26.0610  -72.5883 H         1 UNK         0.0793 
    117 H117      -78.2496   24.2303  -74.3569 H         1 UNK         0.3047 
    118 H118      -77.4491   23.6021  -77.7404 H         1 UNK         0.0822 
    119 H119      -78.0295   21.2301  -77.3869 H         1 UNK         0.0807 
    120 H120      -77.7829   21.3905  -75.6471 H         1 UNK         0.0807 
    121 H121      -76.4236   21.5366  -76.7512 H         1 UNK         0.0807 
    122 H122      -79.7413   22.7555  -76.4307 H         1 UNK         0.2946 
    123 H123      -81.6749   25.3541  -77.2154 H         1 UNK         0.1144 
    124 H124      -81.7168   22.8537  -77.3280 H         1 UNK         0.0793 
    125 H125      -83.0226   23.4696  -76.3392 H         1 UNK         0.0793 
    126 H126      -81.6144   22.7584  -75.5675 H         1 UNK         0.0793 
    127 H127      -82.3281   26.2367  -75.2835 H         1 UNK         0.2896 
@<TRIPOS>BOND
     1    1    2 1    
     2    1   67 1    
     3    1   68 1    
     4    1   69 1    
     5    2    3 2    
     6    2    4 am   BACKBONE|DICT|INTERRES
     7    4    5 1    
     8    4   70 1    
     9    5    6 1    
    10    5   65 1    
    11    5   71 1    
    12    6    7 1    
    13    6   72 1    
    14    6   73 1    
    15    7    8 1    
    16    8    9 1    
    17    8   74 1    
    18    8   75 1    
    19    9   10 ar   
    20    9   14 ar   
    21   10   11 ar   
    22   10   76 1    
    23   11   12 ar   
    24   11   48 1    
    25   12   13 ar   
    26   12   77 1    
    27   13   14 ar   
    28   13   15 1    
    29   14   78 1    
    30   15   16 1    
    31   15   79 1    
    32   15   80 1    
    33   16   17 1    
    34   17   18 1    
    35   17   81 1    
    36   17   82 1    
    37   18   19 1    
    38   18   22 1    
    39   18   83 1    
    40   19   20 am   BACKBONE|DICT|INTERRES
    41   19   21 2    
    42   20   84 1    
    43   20   85 1    
    44   22   23 am   BACKBONE|DICT|INTERRES
    45   22   86 1    
    46   23   24 2    
    47   23   25 1    
    48   25   26 1    
    49   25   27 1    
    50   25   87 1    
    51   26   88 1    
    52   26   89 1    
    53   26   90 1    
    54   27   28 am   BACKBONE|DICT|INTERRES
    55   27   91 1    
    56   28   29 2    
    57   28   30 1    
    58   30   31 1    
    59   30   32 1    
    60   30   92 1    
    61   31   93 1    
    62   31   94 1    
    63   31   95 1    
    64   32   33 am   BACKBONE|DICT|INTERRES
    65   32   96 1    
    66   33   34 2    
    67   33   35 1    
    68   35   36 1    
    69   35   37 1    
    70   35   97 1    
    71   36   98 1    
    72   36   99 1    
    73   36  100 1    
    74   37   38 am   BACKBONE|DICT|INTERRES
    75   37  101 1    
    76   38   39 2    
    77   38   40 1    
    78   40   41 1    
    79   40   42 1    
    80   40  102 1    
    81   41  103 1    
    82   41  104 1    
    83   41  105 1    
    84   42   43 am   BACKBONE|DICT|INTERRES
    85   42  106 1    
    86   43   44 2    
    87   43   45 1    
    88   45   46 1    
    89   45   49 1    
    90   45  107 1    
    91   46   47 1    
    92   46  108 1    
    93   46  109 1    
    94   47   48 1    
    95   48  110 1    
    96   48  111 1    
    97   49   50 am   BACKBONE|DICT|INTERRES
    98   49  112 1    
    99   50   51 2    
   100   50   52 1    
   101   52   53 1    
   102   52   54 1    
   103   52  113 1    
   104   53  114 1    
   105   53  115 1    
   106   53  116 1    
   107   54   55 am   BACKBONE|DICT|INTERRES
   108   54  117 1    
   109   55   56 2    
   110   55   57 1    
   111   57   58 1    
   112   57   59 1    
   113   57  118 1    
   114   58  119 1    
   115   58  120 1    
   116   58  121 1    
   117   59   60 am   BACKBONE|DICT|INTERRES
   118   59  122 1    
   119   60   61 2    
   120   60   62 1    
   121   62   63 1    
   122   62   64 1    
   123   62  123 1    
   124   63  124 1    
   125   63  125 1    
   126   63  126 1    
   127   64   65 am   BACKBONE|DICT|INTERRES
   128   64  127 1    
   129   65   66 2    
@<TRIPOS>SUBSTRUCTURE
     1 UNK         1 GROUP             0       ****    0 ROOT    
