@<TRIPOS>MOLECULE
3R135
127   129    1
SMALL
USER_CHARGES


@<TRIPOS>ATOM
      1 CA        -81.0646   28.8975  -79.3690 C.3       0 UNK        -0.1998 
      2 C         -80.5536   28.2202  -78.1062 C.2       0 UNK         0.4909 
      3 O         -80.1912   27.0451  -78.1512 O.2       0 UNK        -0.5240 
      4 N         -80.5186   28.9578  -76.9888 N.am      1 UNK        -0.4739 
      5 CA        -80.0670   28.4955  -75.6718 C.3       1 UNK         0.0864 
      6 C6        -79.9953   29.6681  -74.6611 C.3       11 UNK        -0.0881 
      7 S7        -78.5656   30.7494  -75.0064 S.3       11 UNK        -0.2682 
      8 C8        -78.1817   31.4157  -73.3472 C.3       11 UNK         0.0289 
      9 C9        -77.4814   30.4682  -72.3661 C.ar      11 UNK        -0.0687 
     10 C10       -77.3609   29.0886  -72.5813 C.ar      11 UNK        -0.0823 
     11 C11       -76.7740   28.2608  -71.6206 C.ar      11 UNK        -0.0830 
     12 C12       -76.2717   28.8182  -70.4427 C.ar      11 UNK        -0.1021 
     13 C13       -76.3676   30.1939  -70.2173 C.ar      11 UNK        -0.0753 
     14 C14       -76.9727   31.0081  -71.1797 C.ar      11 UNK        -0.0933 
     15 C15       -75.8686   30.7984  -68.9124 C.3       11 UNK         0.0166 
     16 S16       -74.2244   31.5594  -69.0860 S.3       11 UNK        -0.2615 
     17 C17       -73.1327   30.0969  -69.1750 C.3       11 UNK        -0.0865 
     18 CA        -72.3563   30.0075  -70.5152 C.3       10 UNK         0.0862 
     19 C         -71.3033   28.8576  -70.4861 C.2       10 UNK         0.5551 
     20 N         -71.2830   27.9287  -71.4354 N.am      10 UNK        -0.7319 
     21 O         -70.4759   28.8117  -69.5789 O.2       10 UNK        -0.5018 
     22 N         -73.2655   29.9705  -71.6705 N.am      10 UNK        -0.4509 
     23 C         -72.9318   30.3396  -72.9095 C.2       10 UNK         0.4899 
     24 O         -71.8534   30.8532  -73.2171 O.2       10 UNK        -0.4839 
     25 CA        -73.9890   30.0837  -73.9930 C.3       9 UNK         0.0222 
     26 CB        -74.6544   31.4008  -74.4202 C.3       9 UNK        -0.1966 
     27 N         -73.4268   29.4230  -75.1706 N.am      9 UNK        -0.4218 
     28 C         -72.7573   28.2625  -75.1873 C.2       9 UNK         0.5020 
     29 O         -72.5256   27.5849  -74.1831 O.2       9 UNK        -0.5274 
     30 CA        -72.2740   27.7896  -76.5719 C.3       8 UNK         0.0270 
     31 CB        -71.4819   26.4698  -76.5127 C.3       8 UNK        -0.1976 
     32 N         -73.3904   27.6506  -77.5141 N.am      8 UNK        -0.4313 
     33 C         -73.9532   28.6685  -78.1840 C.2       8 UNK         0.5041 
     34 O         -73.5862   29.8378  -78.0521 O.2       8 UNK        -0.5577 
     35 CA        -75.1068   28.3650  -79.1587 C.3       7 UNK         0.0284 
     36 CB        -74.6301   28.5069  -80.6139 C.3       7 UNK        -0.1958 
     37 N         -75.7052   27.0413  -78.9833 N.am      7 UNK        -0.4454 
     38 C         -76.5226   26.7004  -77.9791 C.2       7 UNK         0.5089 
     39 O         -76.8695   27.4796  -77.0906 O.2       7 UNK        -0.5125 
     40 CA        -77.0267   25.2420  -77.9447 C.3       6 UNK         0.0408 
     41 CB        -76.4785   24.3430  -79.0767 C.3       6 UNK        -0.1791 
     42 N         -76.7828   24.6140  -76.6448 N.am      6 UNK        -0.4762 
     43 C         -75.6082   24.5153  -76.0033 C.2       6 UNK         0.5007 
     44 O         -74.5385   24.9152  -76.4662 O.2       6 UNK        -0.5032 
     45 CA        -75.6354   23.8043  -74.6337 C.3       5 UNK         0.0783 
     46 C46       -76.3627   24.6245  -73.5399 C.3       11 UNK        -0.0857 
     47 S47       -75.6463   26.2600  -73.1817 S.3       11 UNK        -0.2512 
     48 C48       -76.7584   26.7562  -71.8322 C.3       11 UNK         0.0225 
     49 N         -76.2565   22.4843  -74.7515 N.am      5 UNK        -0.4615 
     50 C         -75.7815   21.4341  -75.4286 C.2       4 UNK         0.5053 
     51 O         -74.6774   21.4168  -75.9721 O.2       4 UNK        -0.5105 
     52 CA        -76.6908   20.1921  -75.5395 C.3       4 UNK         0.0263 
     53 CB        -76.4086   19.1934  -74.3996 C.3       4 UNK        -0.1981 
     54 N         -78.1299   20.4895  -75.6623 N.am      4 UNK        -0.4224 
     55 C         -78.9578   21.0260  -74.7536 C.2       3 UNK         0.4895 
     56 O         -78.6292   21.3118  -73.5999 O.2       3 UNK        -0.5091 
     57 CA        -80.3897   21.3310  -75.2308 C.3       3 UNK         0.0250 
     58 CB        -81.3475   20.2074  -74.8029 C.3       3 UNK        -0.1996 
     59 N         -80.8930   22.6149  -74.7256 N.am      3 UNK        -0.4254 
     60 C         -80.3031   23.8027  -74.9208 C.2       2 UNK         0.5004 
     61 O         -79.2640   23.9531  -75.5693 O.2       2 UNK        -0.5226 
     62 CA        -80.9697   25.0217  -74.2681 C.3       2 UNK         0.0269 
     63 CB        -80.8160   24.9837  -72.7368 C.3       2 UNK        -0.1926 
     64 N         -80.3340   26.2351  -74.7776 N.am      2 UNK        -0.4687 
     65 C         -80.9609   27.3611  -75.1310 C.2       1 UNK         0.5165 
     66 O         -82.1769   27.5385  -75.0234 O.2       1 UNK        -0.5079 
     67 H67       -80.2948   28.8812  -80.1401 H         1 UNK         0.0900 
     68 H68       -81.3444   29.9357  -79.1912 H         1 UNK         0.0900 
     69 H69       -81.9394   28.3706  -79.7492 H         1 UNK         0.0900 
     70 H70       -80.8350   29.9160  -77.0214 H         1 UNK         0.2959 
     71 H71       -79.0610   28.0908  -75.8012 H         1 UNK         0.1079 
     72 H72       -80.9091   30.2646  -74.6914 H         1 UNK         0.0837 
     73 H73       -79.9224   29.3003  -73.6363 H         1 UNK         0.0837 
     74 H74       -77.5542   32.2967  -73.4878 H         1 UNK         0.0685 
     75 H75       -79.1069   31.7718  -72.8920 H         1 UNK         0.0685 
     76 H76       -77.7322   28.6345  -73.4873 H         1 UNK         0.1434 
     77 H77       -75.8331   28.1781  -69.6892 H         1 UNK         0.1329 
     78 H78       -77.0616   32.0701  -70.9941 H         1 UNK         0.1335 
     79 H79       -76.5712   31.5635  -68.5785 H         1 UNK         0.0680 
     80 H80       -75.8446   30.0482  -68.1204 H         1 UNK         0.0680 
     81 H81       -73.7052   29.1845  -69.0042 H         1 UNK         0.1032 
     82 H82       -72.4356   30.1682  -68.3379 H         1 UNK         0.1032 
     83 H83       -71.7701   30.9249  -70.5977 H         1 UNK         0.0461 
     84 H84       -70.5891   27.2002  -71.3897 H         1 UNK         0.3453 
     85 H85       -71.9202   27.9599  -72.2236 H         1 UNK         0.3453 
     86 H86       -74.1816   29.5778  -71.5034 H         1 UNK         0.2984 
     87 H87       -74.7554   29.4199  -73.5905 H         1 UNK         0.0554 
     88 H88       -75.4703   31.2236  -75.1211 H         1 UNK         0.0847 
     89 H89       -73.9424   32.0771  -74.8948 H         1 UNK         0.0847 
     90 H90       -75.0729   31.9221  -73.5585 H         1 UNK         0.0847 
     91 H91       -73.5505   29.8888  -76.0647 H         1 UNK         0.3141 
     92 H92       -71.5916   28.5550  -76.9481 H         1 UNK         0.0743 
     93 H93       -70.5965   26.5777  -75.8850 H         1 UNK         0.0784 
     94 H94       -72.0754   25.6571  -76.0945 H         1 UNK         0.0784 
     95 H95       -71.1419   26.1642  -77.5022 H         1 UNK         0.0784 
     96 H96       -73.8068   26.7288  -77.5791 H         1 UNK         0.3213 
     97 H97       -75.8811   29.1149  -78.9806 H         1 UNK         0.0855 
     98 H98       -74.2111   29.4984  -80.7924 H         1 UNK         0.0814 
     99 H99       -75.4528   28.3752  -81.3169 H         1 UNK         0.0814 
    100 H100      -73.8561   27.7784  -80.8590 H         1 UNK         0.0814 
    101 H101      -75.4587   26.3364  -79.6628 H         1 UNK         0.3105 
    102 H102      -78.1102   25.2910  -78.0578 H         1 UNK         0.0547 
    103 H103      -76.7480   24.7310  -80.0598 H         1 UNK         0.0837 
    104 H104      -75.3931   24.2438  -79.0367 H         1 UNK         0.0837 
    105 H105      -76.8986   23.3393  -79.0106 H         1 UNK         0.0837 
    106 H106      -77.6223   24.2745  -76.1750 H         1 UNK         0.3020 
    107 H107      -74.5984   23.6590  -74.3226 H         1 UNK         0.1245 
    108 H108      -76.3658   24.0568  -72.6076 H         1 UNK         0.0781 
    109 H109      -77.4111   24.7647  -73.8063 H         1 UNK         0.0781 
    110 H110      -76.4648   26.2342  -70.9202 H         1 UNK         0.0836 
    111 H111      -77.7760   26.4326  -72.0553 H         1 UNK         0.0836 
    112 H112      -77.1645   22.3695  -74.3121 H         1 UNK         0.3022 
    113 H113      -76.4184   19.6994  -76.4743 H         1 UNK         0.0747 
    114 H114      -77.0091   18.2900  -74.5057 H         1 UNK         0.0793 
    115 H115      -75.3613   18.8887  -74.4027 H         1 UNK         0.0793 
    116 H116      -76.6153   19.6209  -73.4181 H         1 UNK         0.0793 
    117 H117      -78.5091   20.3204  -76.5843 H         1 UNK         0.3047 
    118 H118      -80.3895   21.3917  -76.3212 H         1 UNK         0.0822 
    119 H119      -82.3548   20.3750  -75.1850 H         1 UNK         0.0807 
    120 H120      -81.4087   20.1228  -73.7170 H         1 UNK         0.0807 
    121 H121      -81.0144   19.2418  -75.1860 H         1 UNK         0.0807 
    122 H122      -81.7240   22.5747  -74.1537 H         1 UNK         0.2946 
    123 H123      -82.0290   25.0106  -74.5354 H         1 UNK         0.1144 
    124 H124      -81.2511   25.8692  -72.2731 H         1 UNK         0.0793 
    125 H125      -79.7684   24.9304  -72.4384 H         1 UNK         0.0793 
    126 H126      -81.3204   24.1165  -72.3093 H         1 UNK         0.0793 
    127 H127      -79.3546   26.1235  -75.0058 H         1 UNK         0.2896 
@<TRIPOS>BOND
     1    1    2 1    
     2    1   67 1    
     3    1   68 1    
     4    1   69 1    
     5    2    3 2    
     6    2    4 am   BACKBONE|DICT|INTERRES
     7    4    5 1    
     8    4   70 1    
     9    5    6 1    
    10    5   65 1    
    11    5   71 1    
    12    6    7 1    
    13    6   72 1    
    14    6   73 1    
    15    7    8 1    
    16    8    9 1    
    17    8   74 1    
    18    8   75 1    
    19    9   10 ar   
    20    9   14 ar   
    21   10   11 ar   
    22   10   76 1    
    23   11   12 ar   
    24   11   48 1    
    25   12   13 ar   
    26   12   77 1    
    27   13   14 ar   
    28   13   15 1    
    29   14   78 1    
    30   15   16 1    
    31   15   79 1    
    32   15   80 1    
    33   16   17 1    
    34   17   18 1    
    35   17   81 1    
    36   17   82 1    
    37   18   19 1    
    38   18   22 1    
    39   18   83 1    
    40   19   20 am   BACKBONE|DICT|INTERRES
    41   19   21 2    
    42   20   84 1    
    43   20   85 1    
    44   22   23 am   BACKBONE|DICT|INTERRES
    45   22   86 1    
    46   23   24 2    
    47   23   25 1    
    48   25   26 1    
    49   25   27 1    
    50   25   87 1    
    51   26   88 1    
    52   26   89 1    
    53   26   90 1    
    54   27   28 am   BACKBONE|DICT|INTERRES
    55   27   91 1    
    56   28   29 2    
    57   28   30 1    
    58   30   31 1    
    59   30   32 1    
    60   30   92 1    
    61   31   93 1    
    62   31   94 1    
    63   31   95 1    
    64   32   33 am   BACKBONE|DICT|INTERRES
    65   32   96 1    
    66   33   34 2    
    67   33   35 1    
    68   35   36 1    
    69   35   37 1    
    70   35   97 1    
    71   36   98 1    
    72   36   99 1    
    73   36  100 1    
    74   37   38 am   BACKBONE|DICT|INTERRES
    75   37  101 1    
    76   38   39 2    
    77   38   40 1    
    78   40   41 1    
    79   40   42 1    
    80   40  102 1    
    81   41  103 1    
    82   41  104 1    
    83   41  105 1    
    84   42   43 am   BACKBONE|DICT|INTERRES
    85   42  106 1    
    86   43   44 2    
    87   43   45 1    
    88   45   46 1    
    89   45   49 1    
    90   45  107 1    
    91   46   47 1    
    92   46  108 1    
    93   46  109 1    
    94   47   48 1    
    95   48  110 1    
    96   48  111 1    
    97   49   50 am   BACKBONE|DICT|INTERRES
    98   49  112 1    
    99   50   51 2    
   100   50   52 1    
   101   52   53 1    
   102   52   54 1    
   103   52  113 1    
   104   53  114 1    
   105   53  115 1    
   106   53  116 1    
   107   54   55 am   BACKBONE|DICT|INTERRES
   108   54  117 1    
   109   55   56 2    
   110   55   57 1    
   111   57   58 1    
   112   57   59 1    
   113   57  118 1    
   114   58  119 1    
   115   58  120 1    
   116   58  121 1    
   117   59   60 am   BACKBONE|DICT|INTERRES
   118   59  122 1    
   119   60   61 2    
   120   60   62 1    
   121   62   63 1    
   122   62   64 1    
   123   62  123 1    
   124   63  124 1    
   125   63  125 1    
   126   63  126 1    
   127   64   65 am   BACKBONE|DICT|INTERRES
   128   64  127 1    
   129   65   66 2    
@<TRIPOS>SUBSTRUCTURE
     1 UNK         1 GROUP             0       ****    0 ROOT    
