@<TRIPOS>MOLECULE
3R135
127   129    1
SMALL
USER_CHARGES


@<TRIPOS>ATOM
      1 CA        -82.5572   26.9845  -70.0012 C.3       0 UNK        -0.1998 
      2 C         -81.9861   26.9901  -71.4106 C.2       0 UNK         0.4909 
      3 O         -80.9522   26.3678  -71.6487 O.2       0 UNK        -0.5240 
      4 N         -82.6598   27.6786  -72.3432 N.am      1 UNK        -0.4739 
      5 CA        -82.3121   27.8887  -73.7614 C.3       1 UNK         0.0864 
      6 C6        -80.9507   28.5995  -73.9791 C.3       11 UNK        -0.0881 
      7 S7        -80.9334   30.2969  -73.3052 S.3       11 UNK        -0.2682 
      8 C8        -79.8659   30.1348  -71.8346 C.3       11 UNK         0.0289 
      9 C9        -78.4684   29.6286  -72.1692 C.ar      11 UNK        -0.0687 
     10 C10       -77.9762   28.4733  -71.5529 C.ar      11 UNK        -0.0823 
     11 C11       -76.7051   27.9822  -71.8710 C.ar      11 UNK        -0.0830 
     12 C12       -75.9283   28.6632  -72.8126 C.ar      11 UNK        -0.1021 
     13 C13       -76.3964   29.8332  -73.4165 C.ar      11 UNK        -0.0753 
     14 C14       -77.6670   30.3122  -73.0895 C.ar      11 UNK        -0.0933 
     15 C15       -75.5361   30.5672  -74.4356 C.3       11 UNK         0.0166 
     16 S16       -74.7056   32.0298  -73.7311 S.3       11 UNK        -0.2615 
     17 C17       -73.5837   31.3043  -72.4831 C.3       11 UNK        -0.0865 
     18 CA        -72.0793   31.4530  -72.8305 C.3       10 UNK         0.0862 
     19 C         -71.2027   31.0097  -71.6203 C.2       10 UNK         0.5551 
     20 N         -70.4306   29.9334  -71.7126 N.am      10 UNK        -0.7319 
     21 O         -71.2256   31.6595  -70.5779 O.2       10 UNK        -0.5018 
     22 N         -71.7437   30.8037  -74.1100 N.am      10 UNK        -0.4509 
     23 C         -70.6129   30.9902  -74.8008 C.2       10 UNK         0.4899 
     24 O         -69.7217   31.7661  -74.4514 O.2       10 UNK        -0.4839 
     25 CA        -70.4482   30.1546  -76.0878 C.3       9 UNK         0.0222 
     26 CB        -69.1243   30.4484  -76.8193 C.3       9 UNK        -0.1966 
     27 N         -70.5418   28.7108  -75.8386 N.am      9 UNK        -0.4218 
     28 C         -71.6823   28.0361  -75.6494 C.2       9 UNK         0.5020 
     29 O         -72.7891   28.5749  -75.6024 O.2       9 UNK        -0.5274 
     30 CA        -71.5719   26.5218  -75.4283 C.3       8 UNK         0.0270 
     31 CB        -71.6771   26.1893  -73.9306 C.3       8 UNK        -0.1976 
     32 N         -72.6485   25.8481  -76.1538 N.am      8 UNK        -0.4313 
     33 C         -72.5917   25.5343  -77.4570 C.2       8 UNK         0.5041 
     34 O         -71.5729   25.6549  -78.1400 O.2       8 UNK        -0.5577 
     35 CA        -73.8730   24.9997  -78.1280 C.3       7 UNK         0.0284 
     36 CB        -73.8640   23.4625  -78.1499 C.3       7 UNK        -0.1958 
     37 N         -75.1049   25.4616  -77.4883 N.am      7 UNK        -0.4454 
     38 C         -75.5166   26.7349  -77.4207 C.2       7 UNK         0.5089 
     39 O         -74.9872   27.6557  -78.0432 O.2       7 UNK        -0.5125 
     40 CA        -76.7082   27.0430  -76.4923 C.3       6 UNK         0.0408 
     41 CB        -77.9696   27.3557  -77.3117 C.3       6 UNK        -0.1791 
     42 N         -77.0261   25.9911  -75.5199 N.am      6 UNK        -0.4762 
     43 C         -76.2169   25.5361  -74.5505 C.2       6 UNK         0.5007 
     44 O         -75.0441   25.8826  -74.4124 O.2       6 UNK        -0.5032 
     45 CA        -76.8148   24.4675  -73.6203 C.3       5 UNK         0.0783 
     46 C46       -77.9001   25.0645  -72.6812 C.3       11 UNK        -0.0857 
     47 S47       -77.3089   25.3622  -70.9831 S.3       11 UNK        -0.2512 
     48 C48       -76.1320   26.7437  -71.1859 C.3       11 UNK         0.0225 
     49 N         -77.3349   23.3675  -74.4321 N.am      5 UNK        -0.4615 
     50 C         -76.5868   22.3837  -74.9494 C.2       4 UNK         0.5053 
     51 O         -75.3862   22.2449  -74.7186 O.2       4 UNK        -0.5105 
     52 CA        -77.2879   21.3865  -75.8905 C.3       4 UNK         0.0263 
     53 CB        -77.7163   20.1297  -75.1161 C.3       4 UNK        -0.1981 
     54 N         -78.4546   21.9537  -76.5717 N.am      4 UNK        -0.4224 
     55 C         -78.3989   22.9129  -77.5069 C.2       3 UNK         0.4895 
     56 O         -77.3504   23.3860  -77.9425 O.2       3 UNK        -0.5091 
     57 CA        -79.7439   23.4730  -78.0021 C.3       3 UNK         0.0250 
     58 CB        -80.2679   22.6465  -79.1871 C.3       3 UNK        -0.1996 
     59 N         -80.7764   23.5493  -76.9597 N.am      3 UNK        -0.4254 
     60 C         -80.6690   24.2627  -75.8300 C.2       2 UNK         0.5004 
     61 O         -79.6584   24.8957  -75.5135 O.2       2 UNK        -0.5226 
     62 CA        -81.8611   24.2108  -74.8627 C.3       2 UNK         0.0269 
     63 CB        -81.6876   23.0560  -73.8630 C.3       2 UNK        -0.1926 
     64 N         -81.9796   25.4656  -74.1211 N.am      2 UNK        -0.4687 
     65 C         -82.4074   26.6218  -74.6401 C.2       1 UNK         0.5165 
     66 O         -82.8761   26.7164  -75.7760 O.2       1 UNK        -0.5079 
     67 H67       -83.4705   27.5746  -69.9274 H         1 UNK         0.0900 
     68 H68       -82.7854   25.9642  -69.6938 H         1 UNK         0.0900 
     69 H69       -81.8295   27.3963  -69.3025 H         1 UNK         0.0900 
     70 H70       -83.5173   28.1347  -72.0634 H         1 UNK         0.2959 
     71 H71       -83.0861   28.5566  -74.1441 H         1 UNK         0.1079 
     72 H72       -80.7335   28.6870  -75.0457 H         1 UNK         0.0837 
     73 H73       -80.1328   28.0090  -73.5642 H         1 UNK         0.0837 
     74 H74       -79.7811   31.1097  -71.3532 H         1 UNK         0.0685 
     75 H75       -80.3563   29.4789  -71.1145 H         1 UNK         0.0685 
     76 H76       -78.5880   27.9477  -70.8322 H         1 UNK         0.1434 
     77 H77       -74.9490   28.2850  -73.0749 H         1 UNK         0.1329 
     78 H78       -78.0384   31.2119  -73.5608 H         1 UNK         0.1335 
     79 H79       -76.1612   30.8875  -75.2704 H         1 UNK         0.0680 
     80 H80       -74.7923   29.8963  -74.8609 H         1 UNK         0.0680 
     81 H81       -73.8049   31.8029  -71.5372 H         1 UNK         0.1032 
     82 H82       -73.8209   30.2541  -72.3210 H         1 UNK         0.1032 
     83 H83       -71.8817   32.5188  -72.9610 H         1 UNK         0.0461 
     84 H84       -70.3964   29.4042  -72.5678 H         1 UNK         0.3453 
     85 H85       -69.8666   29.6603  -70.9233 H         1 UNK         0.3453 
     86 H86       -72.4108   30.1303  -74.4750 H         1 UNK         0.2984 
     87 H87       -71.2610   30.4434  -76.7579 H         1 UNK         0.0554 
     88 H88       -69.0400   31.5079  -77.0653 H         1 UNK         0.0847 
     89 H89       -69.0572   29.8963  -77.7570 H         1 UNK         0.0847 
     90 H90       -68.2579   30.1853  -76.2111 H         1 UNK         0.0847 
     91 H91       -69.6694   28.2015  -75.8217 H         1 UNK         0.3141 
     92 H92       -70.6067   26.1665  -75.7958 H         1 UNK         0.0743 
     93 H93       -72.6020   26.5699  -73.4950 H         1 UNK         0.0784 
     94 H94       -71.6462   25.1130  -73.7600 H         1 UNK         0.0784 
     95 H95       -70.8500   26.6307  -73.3734 H         1 UNK         0.0784 
     96 H96       -73.5422   25.7956  -75.6707 H         1 UNK         0.3213 
     97 H97       -73.8783   25.3601  -79.1588 H         1 UNK         0.0855 
     98 H98       -73.9007   23.0447  -77.1428 H         1 UNK         0.0814 
     99 H99       -72.9601   23.0834  -78.6288 H         1 UNK         0.0814 
    100 H100      -74.7137   23.0684  -78.7077 H         1 UNK         0.0814 
    101 H101      -75.6647   24.7638  -77.0167 H         1 UNK         0.3105 
    102 H102      -76.4430   27.9352  -75.9219 H         1 UNK         0.0547 
    103 H103      -77.7926   28.1795  -78.0043 H         1 UNK         0.0837 
    104 H104      -78.2858   26.4948  -77.9008 H         1 UNK         0.0837 
    105 H105      -78.8003   27.6458  -76.6679 H         1 UNK         0.0837 
    106 H106      -77.9752   25.6208  -75.5571 H         1 UNK         0.3020 
    107 H107      -75.9978   24.0735  -73.0107 H         1 UNK         0.1245 
    108 H108      -78.7344   24.3690  -72.5813 H         1 UNK         0.0781 
    109 H109      -78.3538   25.9765  -73.0756 H         1 UNK         0.0781 
    110 H110      -75.2580   26.3755  -71.7250 H         1 UNK         0.0836 
    111 H111      -75.7731   27.0357  -70.1983 H         1 UNK         0.0836 
    112 H112      -78.2967   23.4599  -74.7319 H         1 UNK         0.3022 
    113 H113      -76.5630   21.0906  -76.6522 H         1 UNK         0.0747 
    114 H114      -78.1448   19.3798  -75.7813 H         1 UNK         0.0793 
    115 H115      -76.8618   19.6681  -74.6190 H         1 UNK         0.0793 
    116 H116      -78.4549   20.3601  -74.3471 H         1 UNK         0.0793 
    117 H117      -79.3619   21.6193  -76.2819 H         1 UNK         0.3047 
    118 H118      -79.5608   24.4900  -78.3537 H         1 UNK         0.0822 
    119 H119      -81.1657   23.0920  -79.6162 H         1 UNK         0.0807 
    120 H120      -80.5066   21.6232  -78.8944 H         1 UNK         0.0807 
    121 H121      -79.5242   22.5924  -79.9837 H         1 UNK         0.0807 
    122 H122      -81.6331   23.0445  -77.1381 H         1 UNK         0.2946 
    123 H123      -82.7786   24.0549  -75.4347 H         1 UNK         0.1144 
    124 H124      -82.5348   22.9952  -73.1796 H         1 UNK         0.0793 
    125 H125      -80.7842   23.1722  -73.2632 H         1 UNK         0.0793 
    126 H126      -81.6187   22.0963  -74.3769 H         1 UNK         0.0793 
    127 H127      -81.5476   25.5098  -73.2013 H         1 UNK         0.2896 
@<TRIPOS>BOND
     1    1    2 1    
     2    1   67 1    
     3    1   68 1    
     4    1   69 1    
     5    2    3 2    
     6    2    4 am   BACKBONE|DICT|INTERRES
     7    4    5 1    
     8    4   70 1    
     9    5    6 1    
    10    5   65 1    
    11    5   71 1    
    12    6    7 1    
    13    6   72 1    
    14    6   73 1    
    15    7    8 1    
    16    8    9 1    
    17    8   74 1    
    18    8   75 1    
    19    9   10 ar   
    20    9   14 ar   
    21   10   11 ar   
    22   10   76 1    
    23   11   12 ar   
    24   11   48 1    
    25   12   13 ar   
    26   12   77 1    
    27   13   14 ar   
    28   13   15 1    
    29   14   78 1    
    30   15   16 1    
    31   15   79 1    
    32   15   80 1    
    33   16   17 1    
    34   17   18 1    
    35   17   81 1    
    36   17   82 1    
    37   18   19 1    
    38   18   22 1    
    39   18   83 1    
    40   19   20 am   BACKBONE|DICT|INTERRES
    41   19   21 2    
    42   20   84 1    
    43   20   85 1    
    44   22   23 am   BACKBONE|DICT|INTERRES
    45   22   86 1    
    46   23   24 2    
    47   23   25 1    
    48   25   26 1    
    49   25   27 1    
    50   25   87 1    
    51   26   88 1    
    52   26   89 1    
    53   26   90 1    
    54   27   28 am   BACKBONE|DICT|INTERRES
    55   27   91 1    
    56   28   29 2    
    57   28   30 1    
    58   30   31 1    
    59   30   32 1    
    60   30   92 1    
    61   31   93 1    
    62   31   94 1    
    63   31   95 1    
    64   32   33 am   BACKBONE|DICT|INTERRES
    65   32   96 1    
    66   33   34 2    
    67   33   35 1    
    68   35   36 1    
    69   35   37 1    
    70   35   97 1    
    71   36   98 1    
    72   36   99 1    
    73   36  100 1    
    74   37   38 am   BACKBONE|DICT|INTERRES
    75   37  101 1    
    76   38   39 2    
    77   38   40 1    
    78   40   41 1    
    79   40   42 1    
    80   40  102 1    
    81   41  103 1    
    82   41  104 1    
    83   41  105 1    
    84   42   43 am   BACKBONE|DICT|INTERRES
    85   42  106 1    
    86   43   44 2    
    87   43   45 1    
    88   45   46 1    
    89   45   49 1    
    90   45  107 1    
    91   46   47 1    
    92   46  108 1    
    93   46  109 1    
    94   47   48 1    
    95   48  110 1    
    96   48  111 1    
    97   49   50 am   BACKBONE|DICT|INTERRES
    98   49  112 1    
    99   50   51 2    
   100   50   52 1    
   101   52   53 1    
   102   52   54 1    
   103   52  113 1    
   104   53  114 1    
   105   53  115 1    
   106   53  116 1    
   107   54   55 am   BACKBONE|DICT|INTERRES
   108   54  117 1    
   109   55   56 2    
   110   55   57 1    
   111   57   58 1    
   112   57   59 1    
   113   57  118 1    
   114   58  119 1    
   115   58  120 1    
   116   58  121 1    
   117   59   60 am   BACKBONE|DICT|INTERRES
   118   59  122 1    
   119   60   61 2    
   120   60   62 1    
   121   62   63 1    
   122   62   64 1    
   123   62  123 1    
   124   63  124 1    
   125   63  125 1    
   126   63  126 1    
   127   64   65 am   BACKBONE|DICT|INTERRES
   128   64  127 1    
   129   65   66 2    
@<TRIPOS>SUBSTRUCTURE
     1 UNK         1 GROUP             0       ****    0 ROOT    
