@<TRIPOS>MOLECULE
3R135
127   129    1
SMALL
USER_CHARGES


@<TRIPOS>ATOM
      1 CA        -84.5533   28.7507  -77.4475 C.3       0 UNK        -0.1998 
      2 C         -84.5811   28.4197  -75.9576 C.2       0 UNK         0.4909 
      3 O         -85.6514   28.1377  -75.4225 O.2       0 UNK        -0.5240 
      4 N         -83.4470   28.4417  -75.2420 N.am      1 UNK        -0.4739 
      5 CA        -82.0844   28.7087  -75.7276 C.3       1 UNK         0.0864 
      6 C6        -81.1501   29.1570  -74.5747 C.3       11 UNK        -0.0881 
      7 S7        -81.0840   27.9905  -73.1690 S.3       11 UNK        -0.2682 
      8 C8        -80.3786   29.0467  -71.8614 C.3       11 UNK         0.0289 
      9 C9        -78.9053   28.7493  -71.6191 C.ar      11 UNK        -0.0687 
     10 C10       -78.5488   27.6428  -70.8435 C.ar      11 UNK        -0.0823 
     11 C11       -77.2068   27.3722  -70.5709 C.ar      11 UNK        -0.0830 
     12 C12       -76.2213   28.2180  -71.0768 C.ar      11 UNK        -0.1021 
     13 C13       -76.5506   29.3142  -71.8782 C.ar      11 UNK        -0.0753 
     14 C14       -77.9025   29.5771  -72.1412 C.ar      11 UNK        -0.0933 
     15 C15       -75.4574   30.1776  -72.5098 C.3       11 UNK         0.0166 
     16 S16       -74.2007   30.7911  -71.3379 S.3       11 UNK        -0.2615 
     17 C17       -72.9015   29.4984  -71.3797 C.3       11 UNK        -0.0865 
     18 CA        -71.7742   29.7938  -72.4044 C.3       10 UNK         0.0862 
     19 C         -70.4680   29.0058  -72.0796 C.2       10 UNK         0.5551 
     20 N         -69.8403   28.3118  -73.0225 N.am      10 UNK        -0.7319 
     21 O         -70.0005   29.0364  -70.9438 O.2       10 UNK        -0.5018 
     22 N         -72.2506   29.5899  -73.7815 N.am      10 UNK        -0.4509 
     23 C         -71.8431   30.2996  -74.8397 C.2       10 UNK         0.4899 
     24 O         -71.0791   31.2638  -74.7645 O.2       10 UNK        -0.4839 
     25 CA        -72.3733   29.8411  -76.2122 C.3       9 UNK         0.0222 
     26 CB        -71.6462   30.5168  -77.3940 C.3       9 UNK        -0.1966 
     27 N         -72.3782   28.3816  -76.3818 N.am      9 UNK        -0.4218 
     28 C         -71.3299   27.5456  -76.2955 C.2       9 UNK         0.5020 
     29 O         -70.1939   27.9170  -75.9972 O.2       9 UNK        -0.5274 
     30 CA        -71.5625   26.0405  -76.5525 C.3       8 UNK         0.0270 
     31 CB        -71.1776   25.2192  -75.3101 C.3       8 UNK        -0.1976 
     32 N         -72.9341   25.6998  -76.9398 N.am      8 UNK        -0.4313 
     33 C         -73.4851   25.9279  -78.1399 C.2       8 UNK         0.5041 
     34 O         -72.8629   26.3652  -79.1081 O.2       8 UNK        -0.5577 
     35 CA        -75.0033   25.6904  -78.2571 C.3       7 UNK         0.0284 
     36 CB        -75.3070   24.2364  -78.6507 C.3       7 UNK        -0.1958 
     37 N         -75.7269   26.0337  -77.0269 N.am      7 UNK        -0.4454 
     38 C         -75.7653   27.2595  -76.4844 C.2       7 UNK         0.5089 
     39 O         -75.2534   28.2512  -77.0014 O.2       7 UNK        -0.5125 
     40 CA        -76.4161   27.3923  -75.1030 C.3       6 UNK         0.0408 
     41 CB        -77.9390   27.4984  -75.2183 C.3       6 UNK        -0.1791 
     42 N         -76.0395   26.2897  -74.2169 N.am      6 UNK        -0.4762 
     43 C         -74.8455   26.1788  -73.6140 C.2       6 UNK         0.5007 
     44 O         -73.9672   27.0415  -73.6849 O.2       6 UNK        -0.5032 
     45 CA        -74.5504   24.8637  -72.8557 C.3       5 UNK         0.0783 
     46 C46       -74.7613   24.9763  -71.3220 C.3       11 UNK        -0.0857 
     47 S47       -76.4869   24.7113  -70.7651 S.3       11 UNK        -0.2512 
     48 C48       -76.8170   26.1693  -69.7289 C.3       11 UNK         0.0225 
     49 N         -75.2636   23.7141  -73.4170 N.am      5 UNK        -0.4615 
     50 C         -75.0346   23.1693  -74.6163 C.2       4 UNK         0.5053 
     51 O         -74.1345   23.5357  -75.3699 O.2       4 UNK        -0.5105 
     52 CA        -76.0218   22.0773  -75.0678 C.3       4 UNK         0.0263 
     53 CB        -75.5925   20.7039  -74.5290 C.3       4 UNK        -0.1981 
     54 N         -77.4074   22.3586  -74.6640 N.am      4 UNK        -0.4224 
     55 C         -78.1051   23.4246  -75.0809 C.2       3 UNK         0.4895 
     56 O         -77.6518   24.2574  -75.8674 O.2       3 UNK        -0.5091 
     57 CA        -79.4981   23.6332  -74.4575 C.3       3 UNK         0.0250 
     58 CB        -79.3693   24.2872  -73.0714 C.3       3 UNK        -0.1996 
     59 N         -80.3714   24.4720  -75.2837 N.am      3 UNK        -0.4254 
     60 C         -80.8490   24.1330  -76.4891 C.2       2 UNK         0.5004 
     61 O         -80.6279   23.0451  -77.0245 O.2       2 UNK        -0.5226 
     62 CA        -81.7487   25.1517  -77.2145 C.3       2 UNK         0.0269 
     63 CB        -83.0763   24.5022  -77.6467 C.3       2 UNK        -0.1926 
     64 N         -82.0611   26.3368  -76.4068 N.am      2 UNK        -0.4687 
     65 C         -81.4877   27.5405  -76.5468 C.2       1 UNK         0.5165 
     66 O         -80.5541   27.7626  -77.3170 O.2       1 UNK        -0.5079 
     67 H67       -84.1199   29.7342  -77.6246 H         1 UNK         0.0900 
     68 H68       -83.9860   28.0066  -78.0051 H         1 UNK         0.0900 
     69 H69       -85.5652   28.7626  -77.8522 H         1 UNK         0.0900 
     70 H70       -83.4989   28.2268  -74.2555 H         1 UNK         0.2959 
     71 H71       -82.1378   29.5514  -76.4194 H         1 UNK         0.1079 
     72 H72       -80.1399   29.3487  -74.9364 H         1 UNK         0.0837 
     73 H73       -81.5069   30.1179  -74.2009 H         1 UNK         0.0837 
     74 H74       -80.5222   30.1021  -72.0961 H         1 UNK         0.0685 
     75 H75       -80.9351   28.8704  -70.9397 H         1 UNK         0.0685 
     76 H76       -79.3193   26.9931  -70.4509 H         1 UNK         0.1434 
     77 H77       -75.1935   28.0029  -70.8486 H         1 UNK         0.1329 
     78 H78       -78.1768   30.4216  -72.7581 H         1 UNK         0.1335 
     79 H79       -74.9573   29.6158  -73.2954 H         1 UNK         0.0680 
     80 H80       -75.9048   31.0446  -72.9979 H         1 UNK         0.0680 
     81 H81       -72.5012   29.4431  -70.3657 H         1 UNK         0.1032 
     82 H82       -73.3192   28.5156  -71.5840 H         1 UNK         0.1032 
     83 H83       -71.5005   30.8436  -72.2837 H         1 UNK         0.0461 
     84 H84       -68.9946   27.8198  -72.7829 H         1 UNK         0.3453 
     85 H85       -70.1655   28.3086  -73.9819 H         1 UNK         0.3453 
     86 H86       -72.8464   28.7811  -73.9266 H         1 UNK         0.2984 
     87 H87       -73.4174   30.1543  -76.2484 H         1 UNK         0.0554 
     88 H88       -71.7407   31.6023  -77.3442 H         1 UNK         0.0847 
     89 H89       -72.0649   30.2004  -78.3494 H         1 UNK         0.0847 
     90 H90       -70.5810   30.2828  -77.4005 H         1 UNK         0.0847 
     91 H91       -73.2852   27.9913  -76.6147 H         1 UNK         0.3141 
     92 H92       -70.8991   25.7495  -77.3694 H         1 UNK         0.0743 
     93 H93       -71.7569   25.5182  -74.4371 H         1 UNK         0.0784 
     94 H94       -71.3343   24.1524  -75.4711 H         1 UNK         0.0784 
     95 H95       -70.1245   25.3564  -75.0608 H         1 UNK         0.0784 
     96 H96       -73.5032   25.2362  -76.2377 H         1 UNK         0.3213 
     97 H97       -75.3780   26.3427  -79.0487 H         1 UNK         0.0855 
     98 H98       -74.9332   23.5288  -77.9112 H         1 UNK         0.0814 
     99 H99       -74.8391   23.9869  -79.6038 H         1 UNK         0.0814 
    100 H100      -76.3789   24.0700  -78.7609 H         1 UNK         0.0814 
    101 H101      -76.2424   25.2880  -76.5636 H         1 UNK         0.3105 
    102 H102      -76.0642   28.3233  -74.6638 H         1 UNK         0.0547 
    103 H103      -78.2110   28.3941  -75.7764 H         1 UNK         0.0837 
    104 H104      -78.3823   26.6538  -75.7423 H         1 UNK         0.0837 
    105 H105      -78.4009   27.5666  -74.2356 H         1 UNK         0.0837 
    106 H106      -76.6856   25.5162  -74.1575 H         1 UNK         0.3020 
    107 H107      -73.4857   24.6771  -73.0118 H         1 UNK         0.1245 
    108 H108      -74.3675   25.9176  -70.9388 H         1 UNK         0.0781 
    109 H109      -74.1621   24.2065  -70.8334 H         1 UNK         0.0781 
    110 H110      -75.9469   26.3951  -69.1104 H         1 UNK         0.0836 
    111 H111      -77.6238   25.9278  -69.0352 H         1 UNK         0.0836 
    112 H112      -76.0219   23.3574  -72.8533 H         1 UNK         0.3022 
    113 H113      -75.9942   22.0399  -76.1588 H         1 UNK         0.0747 
    114 H114      -76.2332   19.9094  -74.9122 H         1 UNK         0.0793 
    115 H115      -74.5714   20.4686  -74.8331 H         1 UNK         0.0793 
    116 H116      -75.6247   20.6663  -73.4394 H         1 UNK         0.0793 
    117 H117      -77.8342   21.7139  -74.0137 H         1 UNK         0.3047 
    118 H118      -79.9764   22.6577  -74.3470 H         1 UNK         0.0822 
    119 H119      -78.7990   23.6551  -72.3906 H         1 UNK         0.0807 
    120 H120      -80.3460   24.4456  -72.6136 H         1 UNK         0.0807 
    121 H121      -78.8665   25.2544  -73.1204 H         1 UNK         0.0807 
    122 H122      -80.5909   25.3910  -74.9292 H         1 UNK         0.2946 
    123 H123      -81.2108   25.4489  -78.1179 H         1 UNK         0.1144 
    124 H124      -83.7017   25.2063  -78.1959 H         1 UNK         0.0793 
    125 H125      -83.6476   24.1433  -76.7898 H         1 UNK         0.0793 
    126 H126      -82.9032   23.6490  -78.3040 H         1 UNK         0.0793 
    127 H127      -82.8117   26.2445  -75.7361 H         1 UNK         0.2896 
@<TRIPOS>BOND
     1    1    2 1    
     2    1   67 1    
     3    1   68 1    
     4    1   69 1    
     5    2    3 2    
     6    2    4 am   BACKBONE|DICT|INTERRES
     7    4    5 1    
     8    4   70 1    
     9    5    6 1    
    10    5   65 1    
    11    5   71 1    
    12    6    7 1    
    13    6   72 1    
    14    6   73 1    
    15    7    8 1    
    16    8    9 1    
    17    8   74 1    
    18    8   75 1    
    19    9   10 ar   
    20    9   14 ar   
    21   10   11 ar   
    22   10   76 1    
    23   11   12 ar   
    24   11   48 1    
    25   12   13 ar   
    26   12   77 1    
    27   13   14 ar   
    28   13   15 1    
    29   14   78 1    
    30   15   16 1    
    31   15   79 1    
    32   15   80 1    
    33   16   17 1    
    34   17   18 1    
    35   17   81 1    
    36   17   82 1    
    37   18   19 1    
    38   18   22 1    
    39   18   83 1    
    40   19   20 am   BACKBONE|DICT|INTERRES
    41   19   21 2    
    42   20   84 1    
    43   20   85 1    
    44   22   23 am   BACKBONE|DICT|INTERRES
    45   22   86 1    
    46   23   24 2    
    47   23   25 1    
    48   25   26 1    
    49   25   27 1    
    50   25   87 1    
    51   26   88 1    
    52   26   89 1    
    53   26   90 1    
    54   27   28 am   BACKBONE|DICT|INTERRES
    55   27   91 1    
    56   28   29 2    
    57   28   30 1    
    58   30   31 1    
    59   30   32 1    
    60   30   92 1    
    61   31   93 1    
    62   31   94 1    
    63   31   95 1    
    64   32   33 am   BACKBONE|DICT|INTERRES
    65   32   96 1    
    66   33   34 2    
    67   33   35 1    
    68   35   36 1    
    69   35   37 1    
    70   35   97 1    
    71   36   98 1    
    72   36   99 1    
    73   36  100 1    
    74   37   38 am   BACKBONE|DICT|INTERRES
    75   37  101 1    
    76   38   39 2    
    77   38   40 1    
    78   40   41 1    
    79   40   42 1    
    80   40  102 1    
    81   41  103 1    
    82   41  104 1    
    83   41  105 1    
    84   42   43 am   BACKBONE|DICT|INTERRES
    85   42  106 1    
    86   43   44 2    
    87   43   45 1    
    88   45   46 1    
    89   45   49 1    
    90   45  107 1    
    91   46   47 1    
    92   46  108 1    
    93   46  109 1    
    94   47   48 1    
    95   48  110 1    
    96   48  111 1    
    97   49   50 am   BACKBONE|DICT|INTERRES
    98   49  112 1    
    99   50   51 2    
   100   50   52 1    
   101   52   53 1    
   102   52   54 1    
   103   52  113 1    
   104   53  114 1    
   105   53  115 1    
   106   53  116 1    
   107   54   55 am   BACKBONE|DICT|INTERRES
   108   54  117 1    
   109   55   56 2    
   110   55   57 1    
   111   57   58 1    
   112   57   59 1    
   113   57  118 1    
   114   58  119 1    
   115   58  120 1    
   116   58  121 1    
   117   59   60 am   BACKBONE|DICT|INTERRES
   118   59  122 1    
   119   60   61 2    
   120   60   62 1    
   121   62   63 1    
   122   62   64 1    
   123   62  123 1    
   124   63  124 1    
   125   63  125 1    
   126   63  126 1    
   127   64   65 am   BACKBONE|DICT|INTERRES
   128   64  127 1    
   129   65   66 2    
@<TRIPOS>SUBSTRUCTURE
     1 UNK         1 GROUP             0       ****    0 ROOT    
