@<TRIPOS>MOLECULE
3R135
127   129    1
SMALL
USER_CHARGES


@<TRIPOS>ATOM
      1 CA        -78.3950   29.3706  -78.9447 C.3       0 UNK        -0.1998 
      2 C         -78.5733   28.4381  -77.7559 C.2       0 UNK         0.4909 
      3 O         -78.3218   27.2396  -77.8800 O.2       0 UNK        -0.5240 
      4 N         -78.9942   28.9846  -76.6074 N.am      1 UNK        -0.4739 
      5 CA        -79.2698   28.2476  -75.3672 C.3       1 UNK         0.0864 
      6 C6        -79.5550   29.2102  -74.1886 C.3       11 UNK        -0.0881 
      7 S7        -78.1337   30.2909  -73.8016 S.3       11 UNK        -0.2682 
      8 C8        -78.0694   30.2022  -71.9825 C.3       11 UNK         0.0289 
      9 C9        -77.0936   29.1433  -71.4856 C.ar      11 UNK        -0.0687 
     10 C10       -77.4340   27.7890  -71.5135 C.ar      11 UNK        -0.0823 
     11 C11       -76.5394   26.8164  -71.0482 C.ar      11 UNK        -0.0830 
     12 C12       -75.3144   27.2228  -70.5089 C.ar      11 UNK        -0.1021 
     13 C13       -74.9664   28.5756  -70.4448 C.ar      11 UNK        -0.0753 
     14 C14       -75.8565   29.5263  -70.9616 C.ar      11 UNK        -0.0933 
     15 C15       -73.6138   28.9640  -69.8423 C.3       11 UNK         0.0166 
     16 S16       -73.5388   30.6615  -69.1699 S.3       11 UNK        -0.2615 
     17 C17       -71.7890   31.0949  -69.4512 C.3       11 UNK        -0.0865 
     18 CA        -71.5657   31.8794  -70.7754 C.3       10 UNK         0.0862 
     19 C         -70.1689   32.5504  -70.7848 C.2       10 UNK         0.5551 
     20 N         -70.0550   33.7509  -70.2344 N.am      10 UNK        -0.7319 
     21 O         -69.1840   31.9817  -71.2547 O.2       10 UNK        -0.5018 
     22 N         -71.7016   31.0131  -71.9539 N.am      10 UNK        -0.4509 
     23 C         -72.7617   30.9340  -72.7641 C.2       10 UNK         0.4899 
     24 O         -73.7935   31.5925  -72.6173 O.2       10 UNK        -0.4839 
     25 CA        -72.6284   29.9262  -73.9230 C.3       9 UNK         0.0222 
     26 CB        -72.4941   28.4795  -73.4133 C.3       9 UNK        -0.1966 
     27 N         -73.7550   29.9665  -74.8517 N.am      9 UNK        -0.4218 
     28 C         -74.0054   30.9210  -75.7523 C.2       9 UNK         0.5020 
     29 O         -73.2997   31.9185  -75.9187 O.2       9 UNK        -0.5274 
     30 CA        -75.2134   30.6561  -76.6710 C.3       8 UNK         0.0270 
     31 CB        -75.5680   31.8661  -77.5554 C.3       8 UNK        -0.1976 
     32 N         -74.9536   29.4941  -77.5256 N.am      8 UNK        -0.4313 
     33 C         -75.0470   28.2176  -77.1325 C.2       8 UNK         0.5041 
     34 O         -75.4260   27.8670  -76.0103 O.2       8 UNK        -0.5577 
     35 CA        -74.5937   27.1604  -78.1403 C.3       7 UNK         0.0284 
     36 CB        -73.0794   26.9068  -78.0085 C.3       7 UNK        -0.1958 
     37 N         -75.3423   25.9395  -77.8727 N.am      7 UNK        -0.4454 
     38 C         -75.4633   24.8899  -78.6901 C.2       7 UNK         0.5089 
     39 O         -74.9189   24.8278  -79.7942 O.2       7 UNK        -0.5125 
     40 CA        -76.3578   23.7222  -78.2226 C.3       6 UNK         0.0408 
     41 CB        -75.8012   22.3500  -78.6558 C.3       6 UNK        -0.1791 
     42 N         -76.6796   23.7163  -76.7898 N.am      6 UNK        -0.4762 
     43 C         -75.8418   23.5814  -75.7480 C.2       6 UNK         0.5007 
     44 O         -74.6171   23.5020  -75.8435 O.2       6 UNK        -0.5032 
     45 CA        -76.5098   23.4868  -74.3652 C.3       5 UNK         0.0783 
     46 C46       -76.9689   24.8885  -73.8789 C.3       11 UNK        -0.0857 
     47 S47       -78.0256   24.8177  -72.3915 S.3       11 UNK        -0.2512 
     48 C48       -76.8807   25.3266  -71.0655 C.3       11 UNK         0.0225 
     49 N         -77.6052   22.5142  -74.4293 N.am      5 UNK        -0.4615 
     50 C         -77.4681   21.1916  -74.2710 C.2       4 UNK         0.5053 
     51 O         -76.3954   20.6431  -74.0173 O.2       4 UNK        -0.5105 
     52 CA        -78.7379   20.3269  -74.3941 C.3       4 UNK         0.0263 
     53 CB        -79.2975   20.0045  -72.9988 C.3       4 UNK        -0.1981 
     54 N         -79.7902   20.9572  -75.1945 N.am      4 UNK        -0.4224 
     55 C         -79.7809   21.0487  -76.5321 C.2       3 UNK         0.4895 
     56 O         -78.9309   20.5212  -77.2495 O.2       3 UNK        -0.5091 
     57 CA        -80.8944   21.8966  -77.1799 C.3       3 UNK         0.0250 
     58 CB        -82.0726   21.0039  -77.6017 C.3       3 UNK        -0.1996 
     59 N         -81.3913   22.9928  -76.3345 N.am      3 UNK        -0.4254 
     60 C         -80.6330   23.9939  -75.8671 C.2       2 UNK         0.5004 
     61 O         -79.4215   24.0808  -76.0830 O.2       2 UNK        -0.5226 
     62 CA        -81.3213   25.0226  -74.9561 C.3       2 UNK         0.0269 
     63 CB        -81.6373   24.4039  -73.5832 C.3       2 UNK        -0.1926 
     64 N         -80.4364   26.1739  -74.7652 N.am      2 UNK        -0.4687 
     65 C         -80.4446   27.2592  -75.5479 C.2       1 UNK         0.5165 
     66 O         -81.3401   27.5036  -76.3624 O.2       1 UNK        -0.5079 
     67 H67       -77.3665   29.3328  -79.3017 H         1 UNK         0.0900 
     68 H68       -78.6296   30.4042  -78.6912 H         1 UNK         0.0900 
     69 H69       -79.0496   29.0648  -79.7603 H         1 UNK         0.0900 
     70 H70       -79.1851   29.9749  -76.5690 H         1 UNK         0.2959 
     71 H71       -78.3742   27.6665  -75.1351 H         1 UNK         0.1079 
     72 H72       -80.4143   29.8453  -74.4128 H         1 UNK         0.0837 
     73 H73       -79.8298   28.6453  -73.2969 H         1 UNK         0.0837 
     74 H74       -77.7743   31.1838  -71.6086 H         1 UNK         0.0685 
     75 H75       -79.0634   30.0185  -71.5724 H         1 UNK         0.0685 
     76 H76       -78.3991   27.4971  -71.8984 H         1 UNK         0.1434 
     77 H77       -74.6269   26.4794  -70.1282 H         1 UNK         0.1329 
     78 H78       -75.5975   30.5753  -70.9498 H         1 UNK         0.1335 
     79 H79       -72.8493   28.8360  -70.6058 H         1 UNK         0.0680 
     80 H80       -73.3560   28.2751  -69.0365 H         1 UNK         0.0680 
     81 H81       -71.1686   30.1974  -69.4174 H         1 UNK         0.1032 
     82 H82       -71.4801   31.6989  -68.5956 H         1 UNK         0.1032 
     83 H83       -72.3031   32.6828  -70.8358 H         1 UNK         0.0461 
     84 H84       -70.8543   34.2217  -69.8389 H         1 UNK         0.3453 
     85 H85       -69.1521   34.1995  -70.2190 H         1 UNK         0.3453 
     86 H86       -70.8659   30.4927  -72.1838 H         1 UNK         0.2984 
     87 H87       -71.7236   30.1814  -74.4785 H         1 UNK         0.0554 
     88 H88       -72.3342   27.7853  -74.2388 H         1 UNK         0.0847 
     89 H89       -73.3906   28.1566  -72.8829 H         1 UNK         0.0847 
     90 H90       -71.6480   28.3644  -72.7353 H         1 UNK         0.0847 
     91 H91       -74.3925   29.1758  -74.8353 H         1 UNK         0.3141 
     92 H92       -76.0751   30.4450  -76.0342 H         1 UNK         0.0743 
     93 H93       -76.4559   31.6728  -78.1567 H         1 UNK         0.0784 
     94 H94       -75.7782   32.7446  -76.9438 H         1 UNK         0.0784 
     95 H95       -74.7540   32.1274  -78.2329 H         1 UNK         0.0784 
     96 H96       -74.5803   29.6927  -78.4431 H         1 UNK         0.3213 
     97 H97       -74.8296   27.5046  -79.1495 H         1 UNK         0.0855 
     98 H98       -72.8225   26.5311  -77.0170 H         1 UNK         0.0814 
     99 H99       -72.5111   27.8240  -78.1677 H         1 UNK         0.0814 
    100 H100      -72.7285   26.1804  -78.7414 H         1 UNK         0.0814 
    101 H101      -75.8565   25.9529  -77.0001 H         1 UNK         0.3105 
    102 H102      -77.3124   23.8623  -78.7316 H         1 UNK         0.0547 
    103 H103      -75.7060   22.2882  -79.7404 H         1 UNK         0.0837 
    104 H104      -74.8142   22.1624  -78.2323 H         1 UNK         0.0837 
    105 H105      -76.4603   21.5394  -78.3447 H         1 UNK         0.0837 
    106 H106      -77.6724   23.8156  -76.5776 H         1 UNK         0.3020 
    107 H107      -75.7598   23.1208  -73.6601 H         1 UNK         0.1245 
    108 H108      -77.5406   25.3991  -74.6548 H         1 UNK         0.0781 
    109 H109      -76.1041   25.5261  -73.6840 H         1 UNK         0.0781 
    110 H110      -75.9713   24.7288  -71.1457 H         1 UNK         0.0836 
    111 H111      -77.3329   25.0709  -70.1065 H         1 UNK         0.0836 
    112 H112      -78.5037   22.8891  -74.7046 H         1 UNK         0.3022 
    113 H113      -78.4522   19.3881  -74.8737 H         1 UNK         0.0747 
    114 H114      -80.1602   19.3408  -73.0600 H         1 UNK         0.0793 
    115 H115      -78.5481   19.5030  -72.3847 H         1 UNK         0.0793 
    116 H116      -79.6027   20.9069  -72.4671 H         1 UNK         0.0793 
    117 H117      -80.5424   21.4030  -74.6904 H         1 UNK         0.3047 
    118 H118      -80.4687   22.3474  -78.0792 H         1 UNK         0.0822 
    119 H119      -82.8219   21.5696  -78.1558 H         1 UNK         0.0807 
    120 H120      -82.5630   20.5475  -76.7409 H         1 UNK         0.0807 
    121 H121      -81.7360   20.1947  -78.2516 H         1 UNK         0.0807 
    122 H122      -82.3758   22.9772  -76.1078 H         1 UNK         0.2946 
    123 H123      -82.2557   25.3368  -75.4272 H         1 UNK         0.1144 
    124 H124      -82.0486   25.1470  -72.8998 H         1 UNK         0.0793 
    125 H125      -80.7523   23.9738  -73.1142 H         1 UNK         0.0793 
    126 H126      -82.3767   23.6071  -73.6707 H         1 UNK         0.0793 
    127 H127      -79.6595   26.0258  -74.1364 H         1 UNK         0.2896 
@<TRIPOS>BOND
     1    1    2 1    
     2    1   67 1    
     3    1   68 1    
     4    1   69 1    
     5    2    3 2    
     6    2    4 am   BACKBONE|DICT|INTERRES
     7    4    5 1    
     8    4   70 1    
     9    5    6 1    
    10    5   65 1    
    11    5   71 1    
    12    6    7 1    
    13    6   72 1    
    14    6   73 1    
    15    7    8 1    
    16    8    9 1    
    17    8   74 1    
    18    8   75 1    
    19    9   10 ar   
    20    9   14 ar   
    21   10   11 ar   
    22   10   76 1    
    23   11   12 ar   
    24   11   48 1    
    25   12   13 ar   
    26   12   77 1    
    27   13   14 ar   
    28   13   15 1    
    29   14   78 1    
    30   15   16 1    
    31   15   79 1    
    32   15   80 1    
    33   16   17 1    
    34   17   18 1    
    35   17   81 1    
    36   17   82 1    
    37   18   19 1    
    38   18   22 1    
    39   18   83 1    
    40   19   20 am   BACKBONE|DICT|INTERRES
    41   19   21 2    
    42   20   84 1    
    43   20   85 1    
    44   22   23 am   BACKBONE|DICT|INTERRES
    45   22   86 1    
    46   23   24 2    
    47   23   25 1    
    48   25   26 1    
    49   25   27 1    
    50   25   87 1    
    51   26   88 1    
    52   26   89 1    
    53   26   90 1    
    54   27   28 am   BACKBONE|DICT|INTERRES
    55   27   91 1    
    56   28   29 2    
    57   28   30 1    
    58   30   31 1    
    59   30   32 1    
    60   30   92 1    
    61   31   93 1    
    62   31   94 1    
    63   31   95 1    
    64   32   33 am   BACKBONE|DICT|INTERRES
    65   32   96 1    
    66   33   34 2    
    67   33   35 1    
    68   35   36 1    
    69   35   37 1    
    70   35   97 1    
    71   36   98 1    
    72   36   99 1    
    73   36  100 1    
    74   37   38 am   BACKBONE|DICT|INTERRES
    75   37  101 1    
    76   38   39 2    
    77   38   40 1    
    78   40   41 1    
    79   40   42 1    
    80   40  102 1    
    81   41  103 1    
    82   41  104 1    
    83   41  105 1    
    84   42   43 am   BACKBONE|DICT|INTERRES
    85   42  106 1    
    86   43   44 2    
    87   43   45 1    
    88   45   46 1    
    89   45   49 1    
    90   45  107 1    
    91   46   47 1    
    92   46  108 1    
    93   46  109 1    
    94   47   48 1    
    95   48  110 1    
    96   48  111 1    
    97   49   50 am   BACKBONE|DICT|INTERRES
    98   49  112 1    
    99   50   51 2    
   100   50   52 1    
   101   52   53 1    
   102   52   54 1    
   103   52  113 1    
   104   53  114 1    
   105   53  115 1    
   106   53  116 1    
   107   54   55 am   BACKBONE|DICT|INTERRES
   108   54  117 1    
   109   55   56 2    
   110   55   57 1    
   111   57   58 1    
   112   57   59 1    
   113   57  118 1    
   114   58  119 1    
   115   58  120 1    
   116   58  121 1    
   117   59   60 am   BACKBONE|DICT|INTERRES
   118   59  122 1    
   119   60   61 2    
   120   60   62 1    
   121   62   63 1    
   122   62   64 1    
   123   62  123 1    
   124   63  124 1    
   125   63  125 1    
   126   63  126 1    
   127   64   65 am   BACKBONE|DICT|INTERRES
   128   64  127 1    
   129   65   66 2    
@<TRIPOS>SUBSTRUCTURE
     1 UNK         1 GROUP             0       ****    0 ROOT    
