@<TRIPOS>MOLECULE
3R135
127   129    1
SMALL
USER_CHARGES


@<TRIPOS>ATOM
      1 CA        -83.9375   25.0775  -75.6534 C.3       0 UNK        -0.1998 
      2 C         -82.8592   26.1135  -75.3778 C.2       0 UNK         0.4909 
      3 O         -82.2281   26.6027  -76.3149 O.2       0 UNK        -0.5240 
      4 N         -82.6387   26.4523  -74.1002 N.am      1 UNK        -0.4739 
      5 CA        -81.6637   27.4572  -73.6614 C.3       1 UNK         0.0864 
      6 C6        -81.8062   27.7741  -72.1526 C.3       11 UNK        -0.0881 
      7 S7        -81.3214   29.4920  -71.7776 S.3       11 UNK        -0.2682 
      8 C8        -80.2059   29.2756  -70.3561 C.3       11 UNK         0.0289 
      9 C9        -78.8263   28.7770  -70.7635 C.ar      11 UNK        -0.0687 
     10 C10       -78.4135   27.4824  -70.4346 C.ar      11 UNK        -0.0823 
     11 C11       -77.1215   27.0434  -70.7435 C.ar      11 UNK        -0.0830 
     12 C12       -76.2433   27.9192  -71.3947 C.ar      11 UNK        -0.1021 
     13 C13       -76.6496   29.2094  -71.7496 C.ar      11 UNK        -0.0753 
     14 C14       -77.9420   29.6325  -71.4267 C.ar      11 UNK        -0.0933 
     15 C15       -75.6961   30.1498  -72.4751 C.3       11 UNK         0.0166 
     16 S16       -74.2934   30.6185  -71.4159 S.3       11 UNK        -0.2615 
     17 C17       -73.7487   32.2010  -72.1555 C.3       11 UNK        -0.0865 
     18 CA        -72.3104   32.1906  -72.7384 C.3       10 UNK         0.0862 
     19 C         -71.2257   31.8804  -71.6617 C.2       10 UNK         0.5551 
     20 N         -70.4407   30.8178  -71.7943 N.am      10 UNK        -0.7319 
     21 O         -71.0878   32.6291  -70.6970 O.2       10 UNK        -0.5018 
     22 N         -72.2254   31.4057  -73.9825 N.am      10 UNK        -0.4509 
     23 C         -71.2580   31.5405  -74.9000 C.2       10 UNK         0.4899 
     24 O         -70.3308   32.3446  -74.7903 O.2       10 UNK        -0.4839 
     25 CA        -71.3344   30.6332  -76.1453 C.3       9 UNK         0.0222 
     26 CB        -70.0315   30.6491  -76.9682 C.3       9 UNK        -0.1966 
     27 N         -71.6663   29.2440  -75.8161 N.am      9 UNK        -0.4218 
     28 C         -72.9057   28.7680  -75.6549 C.2       9 UNK         0.5020 
     29 O         -73.9172   29.4702  -75.6947 O.2       9 UNK        -0.5274 
     30 CA        -73.0366   27.2655  -75.3647 C.3       8 UNK         0.0270 
     31 CB        -73.5973   27.0350  -73.9553 C.3       8 UNK        -0.1976 
     32 N         -73.8988   26.6084  -76.3475 N.am      8 UNK        -0.4313 
     33 C         -73.5732   26.4175  -77.6322 C.2       8 UNK         0.5041 
     34 O         -72.4920   26.7501  -78.1238 O.2       8 UNK        -0.5577 
     35 CA        -74.6356   25.7121  -78.4931 C.3       7 UNK         0.0284 
     36 CB        -74.1961   25.4963  -79.9574 C.3       7 UNK        -0.1958 
     37 N         -75.0844   24.4550  -77.8818 N.am      7 UNK        -0.4454 
     38 C         -74.3569   23.3552  -77.6353 C.2       7 UNK         0.5089 
     39 O         -73.1633   23.2325  -77.9155 O.2       7 UNK        -0.5125 
     40 CA        -75.1191   22.1876  -76.9837 C.3       6 UNK         0.0408 
     41 CB        -74.2095   21.0132  -76.5617 C.3       6 UNK        -0.1791 
     42 N         -75.9916   22.6239  -75.8875 N.am      6 UNK        -0.4762 
     43 C         -75.6376   23.0788  -74.6732 C.2       6 UNK         0.5007 
     44 O         -74.4653   23.1892  -74.3143 O.2       6 UNK        -0.5032 
     45 CA        -76.7706   23.4817  -73.6890 C.3       5 UNK         0.0783 
     46 C46       -76.5179   24.8697  -73.0477 C.3       11 UNK        -0.0857 
     47 S47       -75.5571   24.8062  -71.5012 S.3       11 UNK        -0.2512 
     48 C48       -76.6943   25.6322  -70.3325 C.3       11 UNK         0.0225 
     49 N         -78.1007   23.4600  -74.3019 N.am      5 UNK        -0.4615 
     50 C         -78.8319   22.3837  -74.6086 C.2       4 UNK         0.5053 
     51 O         -78.5196   21.2319  -74.3100 O.2       4 UNK        -0.5105 
     52 CA        -80.0913   22.6435  -75.4549 C.3       4 UNK         0.0263 
     53 CB        -81.3356   22.7364  -74.5588 C.3       4 UNK        -0.1981 
     54 N         -79.9745   23.8534  -76.2840 N.am      4 UNK        -0.4224 
     55 C         -79.1221   23.9850  -77.3136 C.2       3 UNK         0.4895 
     56 O         -78.3979   23.0771  -77.7208 O.2       3 UNK        -0.5091 
     57 CA        -79.0012   25.3780  -77.9506 C.3       3 UNK         0.0250 
     58 CB        -80.1401   25.6263  -78.9516 C.3       3 UNK        -0.1996 
     59 N         -78.9675   26.4443  -76.9460 N.am      3 UNK        -0.4254 
     60 C         -77.9262   26.6826  -76.1323 C.2       2 UNK         0.5004 
     61 O         -76.8673   26.0565  -76.1773 O.2       2 UNK        -0.5226 
     62 CA        -78.0883   27.7853  -75.0706 C.3       2 UNK         0.0269 
     63 CB        -77.5361   29.1156  -75.6017 C.3       2 UNK        -0.1926 
     64 N         -79.4660   27.9840  -74.6133 N.am      2 UNK        -0.4687 
     65 C         -80.2236   27.0468  -74.0284 C.2       1 UNK         0.5165 
     66 O         -79.8417   25.8949  -73.8083 O.2       1 UNK        -0.5079 
     67 H67       -83.5946   24.3653  -76.4034 H         1 UNK         0.0900 
     68 H68       -84.2065   24.5226  -74.7547 H         1 UNK         0.0900 
     69 H69       -84.8335   25.5653  -76.0360 H         1 UNK         0.0900 
     70 H70       -83.1629   25.9961  -73.3675 H         1 UNK         0.2959 
     71 H71       -81.9101   28.3602  -74.2254 H         1 UNK         0.1079 
     72 H72       -82.8478   27.6765  -71.8424 H         1 UNK         0.0837 
     73 H73       -81.2483   27.0645  -71.5381 H         1 UNK         0.0837 
     74 H74       -80.6680   28.6060  -69.6289 H         1 UNK         0.0685 
     75 H75       -80.0969   30.2371  -69.8524 H         1 UNK         0.0685 
     76 H76       -79.0943   26.8210  -69.9164 H         1 UNK         0.1434 
     77 H77       -75.2346   27.6036  -71.6181 H         1 UNK         0.1329 
     78 H78       -78.2621   30.6337  -71.6811 H         1 UNK         0.1335 
     79 H79       -76.2294   31.0456  -72.7959 H         1 UNK         0.0680 
     80 H80       -75.3234   29.6715  -73.3805 H         1 UNK         0.0680 
     81 H81       -74.4512   32.5152  -72.9285 H         1 UNK         0.1032 
     82 H82       -73.8226   32.9662  -71.3804 H         1 UNK         0.1032 
     83 H83       -72.1096   33.2231  -73.0320 H         1 UNK         0.0461 
     84 H84       -69.7391   30.6295  -71.0960 H         1 UNK         0.3453 
     85 H85       -70.5473   30.2044  -72.5853 H         1 UNK         0.3453 
     86 H86       -72.9619   30.7326  -74.1520 H         1 UNK         0.2984 
     87 H87       -72.1231   31.0419  -76.7807 H         1 UNK         0.0554 
     88 H88       -69.7912   31.6586  -77.3048 H         1 UNK         0.0847 
     89 H89       -70.1177   30.0281  -77.8602 H         1 UNK         0.0847 
     90 H90       -69.1817   30.2878  -76.3876 H         1 UNK         0.0847 
     91 H91       -70.8887   28.6033  -75.7409 H         1 UNK         0.3141 
     92 H92       -72.0490   26.8021  -75.4168 H         1 UNK         0.0743 
     93 H93       -72.9946   27.5427  -73.2009 H         1 UNK         0.0784 
     94 H94       -74.6153   27.4141  -73.8706 H         1 UNK         0.0784 
     95 H95       -73.6068   25.9744  -73.7029 H         1 UNK         0.0784 
     96 H96       -74.8334   26.3450  -76.0519 H         1 UNK         0.3213 
     97 H97       -75.5022   26.3749  -78.5110 H         1 UNK         0.0855 
     98 H98       -73.3024   24.8758  -80.0285 H         1 UNK         0.0814 
     99 H99       -73.9665   26.4484  -80.4373 H         1 UNK         0.0814 
    100 H100      -74.9833   25.0203  -80.5418 H         1 UNK         0.0814 
    101 H101      -76.0295   24.4721  -77.5187 H         1 UNK         0.3105 
    102 H102      -75.7896   21.8068  -77.7555 H         1 UNK         0.0547 
    103 H103      -74.7862   20.2051  -76.1122 H         1 UNK         0.0837 
    104 H104      -73.4472   21.3221  -75.8463 H         1 UNK         0.0837 
    105 H105      -73.6887   20.5974  -77.4250 H         1 UNK         0.0837 
    106 H106      -76.9799   22.6069  -76.1086 H         1 UNK         0.3020 
    107 H107      -76.7734   22.7260  -72.9003 H         1 UNK         0.1245 
    108 H108      -77.4691   25.3507  -72.8199 H         1 UNK         0.0781 
    109 H109      -76.0220   25.5452  -73.7428 H         1 UNK         0.0781 
    110 H110      -76.2111   25.6866  -69.3563 H         1 UNK         0.0836 
    111 H111      -77.5709   24.9943  -70.2077 H         1 UNK         0.0836 
    112 H112      -78.4932   24.3661  -74.5271 H         1 UNK         0.3022 
    113 H113      -80.2158   21.7878  -76.1221 H         1 UNK         0.0747 
    114 H114      -82.2470   22.7702  -75.1537 H         1 UNK         0.0793 
    115 H115      -81.4136   21.8640  -73.9084 H         1 UNK         0.0793 
    116 H116      -81.3112   23.6178  -73.9174 H         1 UNK         0.0793 
    117 H117      -80.5002   24.6649  -75.9890 H         1 UNK         0.3047 
    118 H118      -78.0607   25.4086  -78.5050 H         1 UNK         0.0822 
    119 H119      -80.0394   26.5986  -79.4342 H         1 UNK         0.0807 
    120 H120      -81.1199   25.5882  -78.4756 H         1 UNK         0.0807 
    121 H121      -80.1342   24.8723  -79.7400 H         1 UNK         0.0807 
    122 H122      -79.8134   26.9859  -76.8240 H         1 UNK         0.2946 
    123 H123      -77.4957   27.4917  -74.2021 H         1 UNK         0.1144 
    124 H124      -77.5531   29.8887  -74.8338 H         1 UNK         0.0793 
    125 H125      -78.1065   29.4784  -76.4575 H         1 UNK         0.0793 
    126 H126      -76.5007   29.0046  -75.9250 H         1 UNK         0.0793 
    127 H127      -79.8552   28.9059  -74.7503 H         1 UNK         0.2896 
@<TRIPOS>BOND
     1    1    2 1    
     2    1   67 1    
     3    1   68 1    
     4    1   69 1    
     5    2    3 2    
     6    2    4 am   BACKBONE|DICT|INTERRES
     7    4    5 1    
     8    4   70 1    
     9    5    6 1    
    10    5   65 1    
    11    5   71 1    
    12    6    7 1    
    13    6   72 1    
    14    6   73 1    
    15    7    8 1    
    16    8    9 1    
    17    8   74 1    
    18    8   75 1    
    19    9   10 ar   
    20    9   14 ar   
    21   10   11 ar   
    22   10   76 1    
    23   11   12 ar   
    24   11   48 1    
    25   12   13 ar   
    26   12   77 1    
    27   13   14 ar   
    28   13   15 1    
    29   14   78 1    
    30   15   16 1    
    31   15   79 1    
    32   15   80 1    
    33   16   17 1    
    34   17   18 1    
    35   17   81 1    
    36   17   82 1    
    37   18   19 1    
    38   18   22 1    
    39   18   83 1    
    40   19   20 am   BACKBONE|DICT|INTERRES
    41   19   21 2    
    42   20   84 1    
    43   20   85 1    
    44   22   23 am   BACKBONE|DICT|INTERRES
    45   22   86 1    
    46   23   24 2    
    47   23   25 1    
    48   25   26 1    
    49   25   27 1    
    50   25   87 1    
    51   26   88 1    
    52   26   89 1    
    53   26   90 1    
    54   27   28 am   BACKBONE|DICT|INTERRES
    55   27   91 1    
    56   28   29 2    
    57   28   30 1    
    58   30   31 1    
    59   30   32 1    
    60   30   92 1    
    61   31   93 1    
    62   31   94 1    
    63   31   95 1    
    64   32   33 am   BACKBONE|DICT|INTERRES
    65   32   96 1    
    66   33   34 2    
    67   33   35 1    
    68   35   36 1    
    69   35   37 1    
    70   35   97 1    
    71   36   98 1    
    72   36   99 1    
    73   36  100 1    
    74   37   38 am   BACKBONE|DICT|INTERRES
    75   37  101 1    
    76   38   39 2    
    77   38   40 1    
    78   40   41 1    
    79   40   42 1    
    80   40  102 1    
    81   41  103 1    
    82   41  104 1    
    83   41  105 1    
    84   42   43 am   BACKBONE|DICT|INTERRES
    85   42  106 1    
    86   43   44 2    
    87   43   45 1    
    88   45   46 1    
    89   45   49 1    
    90   45  107 1    
    91   46   47 1    
    92   46  108 1    
    93   46  109 1    
    94   47   48 1    
    95   48  110 1    
    96   48  111 1    
    97   49   50 am   BACKBONE|DICT|INTERRES
    98   49  112 1    
    99   50   51 2    
   100   50   52 1    
   101   52   53 1    
   102   52   54 1    
   103   52  113 1    
   104   53  114 1    
   105   53  115 1    
   106   53  116 1    
   107   54   55 am   BACKBONE|DICT|INTERRES
   108   54  117 1    
   109   55   56 2    
   110   55   57 1    
   111   57   58 1    
   112   57   59 1    
   113   57  118 1    
   114   58  119 1    
   115   58  120 1    
   116   58  121 1    
   117   59   60 am   BACKBONE|DICT|INTERRES
   118   59  122 1    
   119   60   61 2    
   120   60   62 1    
   121   62   63 1    
   122   62   64 1    
   123   62  123 1    
   124   63  124 1    
   125   63  125 1    
   126   63  126 1    
   127   64   65 am   BACKBONE|DICT|INTERRES
   128   64  127 1    
   129   65   66 2    
@<TRIPOS>SUBSTRUCTURE
     1 UNK         1 GROUP             0       ****    0 ROOT    
