@<TRIPOS>MOLECULE
3R135
127   129    1
SMALL
USER_CHARGES


@<TRIPOS>ATOM
      1 CA        -84.7589   27.3723  -73.3732 C.3       0 UNK        -0.1998 
      2 C         -83.6958   27.3866  -72.2777 C.2       0 UNK         0.4909 
      3 O         -83.9930   27.0086  -71.1463 O.2       0 UNK        -0.5240 
      4 N         -82.4534   27.8154  -72.5445 N.am      1 UNK        -0.4739 
      5 CA        -81.9134   28.2532  -73.8404 C.3       1 UNK         0.0864 
      6 C6        -80.5567   28.9804  -73.6737 C.3       11 UNK        -0.0881 
      7 S7        -80.7138   30.5777  -72.7942 S.3       11 UNK        -0.2682 
      8 C8        -80.4112   30.1608  -71.0416 C.3       11 UNK         0.0289 
      9 C9        -79.0279   29.5704  -70.8142 C.ar      11 UNK        -0.0687 
     10 C10       -78.8754   28.1919  -70.6400 C.ar      11 UNK        -0.0823 
     11 C11       -77.6027   27.6285  -70.5161 C.ar      11 UNK        -0.0830 
     12 C12       -76.4810   28.4623  -70.5046 C.ar      11 UNK        -0.1021 
     13 C13       -76.6230   29.8456  -70.6450 C.ar      11 UNK        -0.0753 
     14 C14       -77.8989   30.3958  -70.8020 C.ar      11 UNK        -0.0933 
     15 C15       -75.3900   30.7335  -70.6546 C.3       11 UNK         0.0166 
     16 S16       -74.7456   30.9250  -72.3437 S.3       11 UNK        -0.2615 
     17 C17       -73.0223   31.4094  -71.9867 C.3       11 UNK        -0.0865 
     18 CA        -72.2443   31.9048  -73.2448 C.3       10 UNK         0.0862 
     19 C         -70.7879   32.3699  -72.9305 C.2       10 UNK         0.5551 
     20 N         -70.5643   33.0530  -71.8150 N.am      10 UNK        -0.7319 
     21 O         -69.8583   32.1651  -73.7097 O.2       10 UNK        -0.5018 
     22 N         -72.3211   30.9705  -74.3829 N.am      10 UNK        -0.4509 
     23 C         -71.8693   29.7099  -74.4147 C.2       10 UNK         0.4899 
     24 O         -71.3408   29.1399  -73.4575 O.2       10 UNK        -0.4839 
     25 CA        -72.0631   28.9883  -75.7604 C.3       9 UNK         0.0222 
     26 CB        -71.0257   29.4416  -76.8082 C.3       9 UNK        -0.1966 
     27 N         -72.1130   27.5277  -75.6378 N.am      9 UNK        -0.4218 
     28 C         -71.1238   26.6562  -75.3888 C.2       9 UNK         0.5020 
     29 O         -69.9371   26.9554  -75.2448 O.2       9 UNK        -0.5274 
     30 CA        -71.5327   25.1726  -75.3181 C.3       8 UNK         0.0270 
     31 CB        -72.0667   24.8203  -73.9199 C.3       8 UNK        -0.1976 
     32 N         -72.5256   24.8056  -76.3340 N.am      8 UNK        -0.4313 
     33 C         -72.2858   24.7841  -77.6540 C.2       8 UNK         0.5041 
     34 O         -71.1786   24.9905  -78.1532 O.2       8 UNK        -0.5577 
     35 CA        -73.4795   24.4944  -78.5801 C.3       7 UNK         0.0284 
     36 CB        -73.7415   22.9827  -78.6756 C.3       7 UNK        -0.1958 
     37 N         -74.7021   25.1865  -78.1658 N.am      7 UNK        -0.4454 
     38 C         -74.8740   26.5164  -78.1946 C.2       7 UNK         0.5089 
     39 O         -74.0436   27.3073  -78.6419 O.2       7 UNK        -0.5125 
     40 CA        -76.1816   27.0634  -77.5925 C.3       6 UNK         0.0408 
     41 CB        -77.3225   27.0136  -78.6200 C.3       6 UNK        -0.1791 
     42 N         -76.5865   26.3636  -76.3706 N.am      6 UNK        -0.4762 
     43 C         -75.8707   26.3345  -75.2364 C.2       6 UNK         0.5007 
     44 O         -74.8039   26.9272  -75.0847 O.2       6 UNK        -0.5032 
     45 CA        -76.4156   25.4568  -74.0964 C.3       5 UNK         0.0783 
     46 C46       -77.5224   26.2116  -73.3275 C.3       11 UNK        -0.0857 
     47 S47       -78.1879   25.2755  -71.9058 S.3       11 UNK        -0.2512 
     48 C48       -77.4295   26.1152  -70.4699 C.3       11 UNK         0.0225 
     49 N         -76.8594   24.1579  -74.6067 N.am      5 UNK        -0.4615 
     50 C         -76.0469   23.2262  -75.1227 C.2       4 UNK         0.5053 
     51 O         -74.8231   23.3430  -75.1828 O.2       4 UNK        -0.5105 
     52 CA        -76.7196   21.9750  -75.7123 C.3       4 UNK         0.0263 
     53 CB        -77.0275   20.9550  -74.6050 C.3       4 UNK        -0.1981 
     54 N         -77.9484   22.2913  -76.4460 N.am      4 UNK        -0.4224 
     55 C         -77.9919   23.0191  -77.5720 C.2       3 UNK         0.4895 
     56 O         -76.9925   23.4408  -78.1516 O.2       3 UNK        -0.5091 
     57 CA        -79.3847   23.3820  -78.1170 C.3       3 UNK         0.0250 
     58 CB        -79.8974   22.2829  -79.0609 C.3       3 UNK        -0.1996 
     59 N         -80.3788   23.6349  -77.0671 N.am      3 UNK        -0.4254 
     60 C         -80.2786   24.5954  -76.1369 C.2       2 UNK         0.5004 
     61 O         -79.3266   25.3753  -76.0639 O.2       2 UNK        -0.5226 
     62 CA        -81.3954   24.6278  -75.0781 C.3       2 UNK         0.0269 
     63 CB        -81.2057   23.4792  -74.0718 C.3       2 UNK        -0.1926 
     64 N         -81.4649   25.8862  -74.3298 N.am      2 UNK        -0.4687 
     65 C         -81.7928   27.0821  -74.8403 C.2       1 UNK         0.5165 
     66 O         -82.0614   27.2713  -76.0272 O.2       1 UNK        -0.5079 
     67 H67       -84.5832   26.5547  -74.0713 H         1 UNK         0.0900 
     68 H68       -85.7477   27.2283  -72.9382 H         1 UNK         0.0900 
     69 H69       -84.7818   28.3110  -73.9248 H         1 UNK         0.0900 
     70 H70       -81.7917   27.8276  -71.7844 H         1 UNK         0.2959 
     71 H71       -82.6125   28.9687  -74.2776 H         1 UNK         0.1079 
     72 H72       -80.1309   29.2079  -74.6533 H         1 UNK         0.0837 
     73 H73       -79.8246   28.3407  -73.1818 H         1 UNK         0.0837 
     74 H74       -81.1870   29.4824  -70.6856 H         1 UNK         0.0685 
     75 H75       -80.5146   31.0692  -70.4463 H         1 UNK         0.0685 
     76 H76       -79.7415   27.5454  -70.6556 H         1 UNK         0.1434 
     77 H77       -75.4912   28.0351  -70.4164 H         1 UNK         0.1329 
     78 H78       -78.0122   31.4627  -70.9387 H         1 UNK         0.1335 
     79 H79       -74.6210   30.2999  -70.0130 H         1 UNK         0.0680 
     80 H80       -75.6218   31.7159  -70.2403 H         1 UNK         0.0680 
     81 H81       -72.5098   30.5616  -71.5288 H         1 UNK         0.1032 
     82 H82       -73.0546   32.1912  -71.2268 H         1 UNK         0.1032 
     83 H83       -72.7475   32.8056  -73.5981 H         1 UNK         0.0461 
     84 H84       -69.6273   33.3702  -71.6200 H         1 UNK         0.3453 
     85 H85       -71.3078   33.2721  -71.1716 H         1 UNK         0.3453 
     86 H86       -72.7213   31.3568  -75.2253 H         1 UNK         0.2984 
     87 H87       -73.0507   29.2659  -76.1330 H         1 UNK         0.0554 
     88 H88       -71.1186   30.5081  -77.0154 H         1 UNK         0.0847 
     89 H89       -71.1618   28.9151  -77.7532 H         1 UNK         0.0847 
     90 H90       -70.0032   29.2704  -76.4707 H         1 UNK         0.0847 
     91 H91       -73.0602   27.1533  -75.6321 H         1 UNK         0.3141 
     92 H92       -70.6374   24.5736  -75.4976 H         1 UNK         0.0743 
     93 H93       -71.3314   25.0602  -73.1506 H         1 UNK         0.0784 
     94 H94       -72.9771   25.3716  -73.6834 H         1 UNK         0.0784 
     95 H95       -72.2892   23.7563  -73.8368 H         1 UNK         0.0784 
     96 H96       -73.4490   24.5432  -76.0006 H         1 UNK         0.3213 
     97 H97       -73.2175   24.8547  -79.5773 H         1 UNK         0.0855 
     98 H98       -74.0360   22.5609  -77.7145 H         1 UNK         0.0814 
     99 H99       -72.8474   22.4519  -79.0052 H         1 UNK         0.0814 
    100 H100      -74.5322   22.7624  -79.3931 H         1 UNK         0.0814 
    101 H101      -75.4800   24.6039  -77.8668 H         1 UNK         0.3105 
    102 H102      -76.0119   28.1090  -77.3271 H         1 UNK         0.0547 
    103 H103      -77.0725   27.5980  -79.5063 H         1 UNK         0.0837 
    104 H104      -78.2461   27.4229  -78.2099 H         1 UNK         0.0837 
    105 H105      -77.5252   25.9950  -78.9499 H         1 UNK         0.0837 
    106 H106      -77.4820   25.8803  -76.3869 H         1 UNK         0.3020 
    107 H107      -75.5886   25.2756  -73.4060 H         1 UNK         0.1245 
    108 H108      -78.3616   26.4428  -73.9832 H         1 UNK         0.0781 
    109 H109      -77.1440   27.1802  -73.0014 H         1 UNK         0.0781 
    110 H110      -76.3727   25.8466  -70.4304 H         1 UNK         0.0836 
    111 H111      -77.8795   25.7307  -69.5538 H         1 UNK         0.0836 
    112 H112      -77.8571   24.0117  -74.6330 H         1 UNK         0.3022 
    113 H113      -76.0168   21.5191  -76.4130 H         1 UNK         0.0747 
    114 H114      -77.4339   20.0315  -75.0180 H         1 UNK         0.0793 
    115 H115      -76.1219   20.6915  -74.0566 H         1 UNK         0.0793 
    116 H116      -77.7447   21.3445  -73.8811 H         1 UNK         0.0793 
    117 H117      -78.8185   21.9749  -76.0445 H         1 UNK         0.3047 
    118 H118      -79.2787   24.3027  -78.6940 H         1 UNK         0.0822 
    119 H119      -80.8377   22.5705  -79.5318 H         1 UNK         0.0807 
    120 H120      -80.0577   21.3397  -78.5370 H         1 UNK         0.0807 
    121 H121      -79.1817   22.0929  -79.8623 H         1 UNK         0.0807 
    122 H122      -81.1861   23.0278  -77.0566 H         1 UNK         0.2946 
    123 H123      -82.3497   24.4959  -75.5931 H         1 UNK         0.1144 
    124 H124      -80.2618   23.5673  -73.5322 H         1 UNK         0.0793 
    125 H125      -81.2083   22.5081  -74.5682 H         1 UNK         0.0793 
    126 H126      -82.0097   23.4610  -73.3356 H         1 UNK         0.0793 
    127 H127      -81.2569   25.8334  -73.3435 H         1 UNK         0.2896 
@<TRIPOS>BOND
     1    1    2 1    
     2    1   67 1    
     3    1   68 1    
     4    1   69 1    
     5    2    3 2    
     6    2    4 am   BACKBONE|DICT|INTERRES
     7    4    5 1    
     8    4   70 1    
     9    5    6 1    
    10    5   65 1    
    11    5   71 1    
    12    6    7 1    
    13    6   72 1    
    14    6   73 1    
    15    7    8 1    
    16    8    9 1    
    17    8   74 1    
    18    8   75 1    
    19    9   10 ar   
    20    9   14 ar   
    21   10   11 ar   
    22   10   76 1    
    23   11   12 ar   
    24   11   48 1    
    25   12   13 ar   
    26   12   77 1    
    27   13   14 ar   
    28   13   15 1    
    29   14   78 1    
    30   15   16 1    
    31   15   79 1    
    32   15   80 1    
    33   16   17 1    
    34   17   18 1    
    35   17   81 1    
    36   17   82 1    
    37   18   19 1    
    38   18   22 1    
    39   18   83 1    
    40   19   20 am   BACKBONE|DICT|INTERRES
    41   19   21 2    
    42   20   84 1    
    43   20   85 1    
    44   22   23 am   BACKBONE|DICT|INTERRES
    45   22   86 1    
    46   23   24 2    
    47   23   25 1    
    48   25   26 1    
    49   25   27 1    
    50   25   87 1    
    51   26   88 1    
    52   26   89 1    
    53   26   90 1    
    54   27   28 am   BACKBONE|DICT|INTERRES
    55   27   91 1    
    56   28   29 2    
    57   28   30 1    
    58   30   31 1    
    59   30   32 1    
    60   30   92 1    
    61   31   93 1    
    62   31   94 1    
    63   31   95 1    
    64   32   33 am   BACKBONE|DICT|INTERRES
    65   32   96 1    
    66   33   34 2    
    67   33   35 1    
    68   35   36 1    
    69   35   37 1    
    70   35   97 1    
    71   36   98 1    
    72   36   99 1    
    73   36  100 1    
    74   37   38 am   BACKBONE|DICT|INTERRES
    75   37  101 1    
    76   38   39 2    
    77   38   40 1    
    78   40   41 1    
    79   40   42 1    
    80   40  102 1    
    81   41  103 1    
    82   41  104 1    
    83   41  105 1    
    84   42   43 am   BACKBONE|DICT|INTERRES
    85   42  106 1    
    86   43   44 2    
    87   43   45 1    
    88   45   46 1    
    89   45   49 1    
    90   45  107 1    
    91   46   47 1    
    92   46  108 1    
    93   46  109 1    
    94   47   48 1    
    95   48  110 1    
    96   48  111 1    
    97   49   50 am   BACKBONE|DICT|INTERRES
    98   49  112 1    
    99   50   51 2    
   100   50   52 1    
   101   52   53 1    
   102   52   54 1    
   103   52  113 1    
   104   53  114 1    
   105   53  115 1    
   106   53  116 1    
   107   54   55 am   BACKBONE|DICT|INTERRES
   108   54  117 1    
   109   55   56 2    
   110   55   57 1    
   111   57   58 1    
   112   57   59 1    
   113   57  118 1    
   114   58  119 1    
   115   58  120 1    
   116   58  121 1    
   117   59   60 am   BACKBONE|DICT|INTERRES
   118   59  122 1    
   119   60   61 2    
   120   60   62 1    
   121   62   63 1    
   122   62   64 1    
   123   62  123 1    
   124   63  124 1    
   125   63  125 1    
   126   63  126 1    
   127   64   65 am   BACKBONE|DICT|INTERRES
   128   64  127 1    
   129   65   66 2    
@<TRIPOS>SUBSTRUCTURE
     1 UNK         1 GROUP             0       ****    0 ROOT    
