@<TRIPOS>MOLECULE
3R135
127   129    1
SMALL
USER_CHARGES


@<TRIPOS>ATOM
      1 CA        -85.7125   28.5409  -74.1014 C.3       0 UNK        -0.1998 
      2 C         -84.2635   28.7773  -74.4991 C.2       0 UNK         0.4909 
      3 O         -83.9783   29.7111  -75.2493 O.2       0 UNK        -0.5240 
      4 N         -83.3452   27.9376  -74.0031 N.am      1 UNK        -0.4739 
      5 CA        -81.9015   28.0225  -74.2699 C.3       1 UNK         0.0864 
      6 C6        -81.0679   27.2185  -73.2369 C.3       11 UNK        -0.0881 
      7 S7        -81.4296   27.6664  -71.5079 S.3       11 UNK        -0.2682 
      8 C8        -80.2644   29.0419  -71.2314 C.3       11 UNK         0.0289 
      9 C9        -78.8011   28.6227  -71.0980 C.ar      11 UNK        -0.0687 
     10 C10       -78.4282   27.4969  -70.3559 C.ar      11 UNK        -0.0823 
     11 C11       -77.0794   27.1800  -70.1653 C.ar      11 UNK        -0.0830 
     12 C12       -76.0956   28.0076  -70.7187 C.ar      11 UNK        -0.1021 
     13 C13       -76.4491   29.1347  -71.4721 C.ar      11 UNK        -0.0753 
     14 C14       -77.8043   29.4273  -71.6568 C.ar      11 UNK        -0.0933 
     15 C15       -75.4167   30.1059  -72.0463 C.3       11 UNK         0.0166 
     16 S16       -73.7450   29.4258  -72.3285 S.3       11 UNK        -0.2615 
     17 C17       -72.9556   30.8778  -73.0969 C.3       11 UNK        -0.0865 
     18 CA        -73.0119   30.8237  -74.6545 C.3       10 UNK         0.0862 
     19 C         -72.9220   32.2337  -75.3216 C.2       10 UNK         0.5551 
     20 N         -72.3994   32.3572  -76.5362 N.am      10 UNK        -0.7319 
     21 O         -73.3634   33.2292  -74.7525 O.2       10 UNK        -0.5018 
     22 N         -72.1067   29.8145  -75.2441 N.am      10 UNK        -0.4509 
     23 C         -70.7656   29.8620  -75.2144 C.2       10 UNK         0.4899 
     24 O         -70.1288   30.6908  -74.5613 O.2       10 UNK        -0.4839 
     25 CA        -70.0032   28.8737  -76.1207 C.3       9 UNK         0.0222 
     26 CB        -68.4892   28.8239  -75.8180 C.3       9 UNK        -0.1966 
     27 N         -70.5645   27.5209  -76.1650 N.am      9 UNK        -0.4218 
     28 C         -70.6675   26.6322  -75.1683 C.2       9 UNK         0.5020 
     29 O         -70.3632   26.8720  -73.9985 O.2       9 UNK        -0.5274 
     30 CA        -71.1565   25.2221  -75.5721 C.3       8 UNK         0.0270 
     31 CB        -71.2199   24.2495  -74.3794 C.3       8 UNK        -0.1976 
     32 N         -72.4602   25.2383  -76.2409 N.am      8 UNK        -0.4313 
     33 C         -72.7126   25.6883  -77.4781 C.2       8 UNK         0.5041 
     34 O         -71.8374   26.0883  -78.2480 O.2       8 UNK        -0.5577 
     35 CA        -74.1884   25.7658  -77.9083 C.3       7 UNK         0.0284 
     36 CB        -74.6291   24.4535  -78.5732 C.3       7 UNK        -0.1958 
     37 N         -75.0855   26.0948  -76.7951 N.am      7 UNK        -0.4454 
     38 C         -75.0437   27.2499  -76.1122 C.2       7 UNK         0.5089 
     39 O         -74.2882   28.1822  -76.3909 O.2       7 UNK        -0.5125 
     40 CA        -75.9819   27.3773  -74.9035 C.3       6 UNK         0.0408 
     41 CB        -77.3469   27.9256  -75.3327 C.3       6 UNK        -0.1791 
     42 N         -76.1572   26.1059  -74.1991 N.am      6 UNK        -0.4762 
     43 C         -75.2313   25.5681  -73.3902 C.2       6 UNK         0.5007 
     44 O         -74.1472   26.0941  -73.1461 O.2       6 UNK        -0.5032 
     45 CA        -75.5394   24.1729  -72.8059 C.3       5 UNK         0.0783 
     46 C46       -76.4293   24.2492  -71.5404 C.3       11 UNK        -0.0857 
     47 S47       -75.5027   24.8504  -70.0887 S.3       11 UNK        -0.2512 
     48 C48       -76.7002   25.9794  -69.3028 C.3       11 UNK         0.0225 
     49 N         -76.1087   23.2691  -73.8095 N.am      5 UNK        -0.4615 
     50 C         -75.4842   22.8834  -74.9312 C.2       4 UNK         0.5053 
     51 O         -74.3353   23.2131  -75.2205 O.2       4 UNK        -0.5105 
     52 CA        -76.2829   22.0125  -75.9168 C.3       4 UNK         0.0263 
     53 CB        -75.9960   20.5241  -75.6641 C.3       4 UNK        -0.1981 
     54 N         -77.7314   22.2402  -75.8920 N.am      4 UNK        -0.4224 
     55 C         -78.3450   23.4096  -76.1217 C.2       3 UNK         0.4895 
     56 O         -77.7569   24.4723  -76.3460 O.2       3 UNK        -0.5091 
     57 CA        -79.8727   23.3786  -76.0233 C.3       3 UNK         0.0250 
     58 CB        -80.3204   23.2796  -74.5519 C.3       3 UNK        -0.1996 
     59 N         -80.4410   24.5852  -76.6170 N.am      3 UNK        -0.4254 
     60 C         -81.6401   24.6583  -77.2060 C.2       2 UNK         0.5004 
     61 O         -82.3805   23.6871  -77.3750 O.2       2 UNK        -0.5226 
     62 CA        -82.1230   26.0677  -77.5861 C.3       2 UNK         0.0269 
     63 CB        -83.3913   26.0512  -78.4601 C.3       2 UNK        -0.1926 
     64 N         -82.4080   26.7946  -76.3493 N.am      2 UNK        -0.4687 
     65 C         -81.5280   27.5641  -75.6957 C.2       1 UNK         0.5165 
     66 O         -80.4314   27.8720  -76.1600 O.2       1 UNK        -0.5079 
     67 H67       -86.1103   29.4199  -73.5947 H         1 UNK         0.0900 
     68 H68       -85.8177   27.6876  -73.4315 H         1 UNK         0.0900 
     69 H69       -86.3191   28.3541  -74.9871 H         1 UNK         0.0900 
     70 H70       -83.6287   27.2055  -73.3669 H         1 UNK         0.2959 
     71 H71       -81.6085   29.0722  -74.1960 H         1 UNK         0.1079 
     72 H72       -81.2636   26.1499  -73.3428 H         1 UNK         0.0837 
     73 H73       -79.9986   27.3451  -73.4144 H         1 UNK         0.0837 
     74 H74       -80.5534   29.5542  -70.3131 H         1 UNK         0.0685 
     75 H75       -80.3865   29.7679  -72.0366 H         1 UNK         0.0685 
     76 H76       -79.1924   26.8817  -69.9010 H         1 UNK         0.1434 
     77 H77       -75.0545   27.7728  -70.5473 H         1 UNK         0.1329 
     78 H78       -78.0846   30.3117  -72.2129 H         1 UNK         0.1335 
     79 H79       -75.7836   30.4964  -72.9970 H         1 UNK         0.0680 
     80 H80       -75.3384   30.9567  -71.3683 H         1 UNK         0.0680 
     81 H81       -73.4508   31.7686  -72.7075 H         1 UNK         0.1032 
     82 H82       -71.9278   30.9484  -72.7412 H         1 UNK         0.1032 
     83 H83       -74.0146   30.4905  -74.9234 H         1 UNK         0.0461 
     84 H84       -72.0581   31.5490  -77.0303 H         1 UNK         0.3453 
     85 H85       -72.3564   33.2683  -76.9649 H         1 UNK         0.3453 
     86 H86       -72.5731   29.0968  -75.7897 H         1 UNK         0.2984 
     87 H87       -70.1126   29.2652  -77.1329 H         1 UNK         0.0554 
     88 H88       -67.9690   28.1501  -76.4986 H         1 UNK         0.0847 
     89 H89       -68.2916   28.4903  -74.7988 H         1 UNK         0.0847 
     90 H90       -68.0332   29.8083  -75.9310 H         1 UNK         0.0847 
     91 H91       -70.8880   27.2020  -77.0774 H         1 UNK         0.3141 
     92 H92       -70.4232   24.8254  -76.2773 H         1 UNK         0.0743 
     93 H93       -71.9376   24.5811  -73.6284 H         1 UNK         0.0784 
     94 H94       -71.5094   23.2481  -74.6987 H         1 UNK         0.0784 
     95 H95       -70.2490   24.1646  -73.8898 H         1 UNK         0.0784 
     96 H96       -73.2407   24.8774  -75.7013 H         1 UNK         0.3213 
     97 H97       -74.2782   26.5672  -78.6448 H         1 UNK         0.0855 
     98 H98       -74.4144   23.5922  -77.9421 H         1 UNK         0.0814 
     99 H99       -74.0948   24.3011  -79.5118 H         1 UNK         0.0814 
    100 H100      -75.6953   24.4535  -78.8015 H         1 UNK         0.0814 
    101 H101      -75.7740   25.4015  -76.5263 H         1 UNK         0.3105 
    102 H102      -75.5376   28.0959  -74.2146 H         1 UNK         0.0547 
    103 H103      -77.2404   28.8799  -75.8499 H         1 UNK         0.0837 
    104 H104      -77.8579   27.2426  -76.0116 H         1 UNK         0.0837 
    105 H105      -77.9925   28.0969  -74.4723 H         1 UNK         0.0837 
    106 H106      -76.9888   25.5741  -74.4171 H         1 UNK         0.3020 
    107 H107      -74.5796   23.7366  -72.5177 H         1 UNK         0.1245 
    108 H108      -76.8026   23.2565  -71.2839 H         1 UNK         0.0781 
    109 H109      -77.3134   24.8645  -71.7181 H         1 UNK         0.0781 
    110 H110      -76.2708   26.3461  -68.3697 H         1 UNK         0.0836 
    111 H111      -77.5851   25.4043  -69.0253 H         1 UNK         0.0836 
    112 H112      -77.0498   22.9437  -73.6487 H         1 UNK         0.3022 
    113 H113      -75.9401   22.2549  -76.9228 H         1 UNK         0.0747 
    114 H114      -76.4699   19.8938  -76.4169 H         1 UNK         0.0793 
    115 H115      -74.9246   20.3212  -75.7042 H         1 UNK         0.0793 
    116 H116      -76.3514   20.2040  -74.6838 H         1 UNK         0.0793 
    117 H117      -78.3036   21.4290  -75.7042 H         1 UNK         0.3047 
    118 H118      -80.2244   22.5024  -76.5728 H         1 UNK         0.0822 
    119 H119      -79.9580   22.3627  -74.0857 H         1 UNK         0.0807 
    120 H120      -81.4073   23.2709  -74.4675 H         1 UNK         0.0807 
    121 H121      -79.9472   24.1167  -73.9607 H         1 UNK         0.0807 
    122 H122      -79.8582   25.4115  -76.5542 H         1 UNK         0.2946 
    123 H123      -81.3274   26.5593  -78.1513 H         1 UNK         0.1144 
    124 H124      -83.2185   25.5021  -79.3866 H         1 UNK         0.0793 
    125 H125      -83.6938   27.0620  -78.7343 H         1 UNK         0.0793 
    126 H126      -84.2321   25.5781  -77.9511 H         1 UNK         0.0793 
    127 H127      -83.2758   26.5708  -75.8834 H         1 UNK         0.2896 
@<TRIPOS>BOND
     1    1    2 1    
     2    1   67 1    
     3    1   68 1    
     4    1   69 1    
     5    2    3 2    
     6    2    4 am   BACKBONE|DICT|INTERRES
     7    4    5 1    
     8    4   70 1    
     9    5    6 1    
    10    5   65 1    
    11    5   71 1    
    12    6    7 1    
    13    6   72 1    
    14    6   73 1    
    15    7    8 1    
    16    8    9 1    
    17    8   74 1    
    18    8   75 1    
    19    9   10 ar   
    20    9   14 ar   
    21   10   11 ar   
    22   10   76 1    
    23   11   12 ar   
    24   11   48 1    
    25   12   13 ar   
    26   12   77 1    
    27   13   14 ar   
    28   13   15 1    
    29   14   78 1    
    30   15   16 1    
    31   15   79 1    
    32   15   80 1    
    33   16   17 1    
    34   17   18 1    
    35   17   81 1    
    36   17   82 1    
    37   18   19 1    
    38   18   22 1    
    39   18   83 1    
    40   19   20 am   BACKBONE|DICT|INTERRES
    41   19   21 2    
    42   20   84 1    
    43   20   85 1    
    44   22   23 am   BACKBONE|DICT|INTERRES
    45   22   86 1    
    46   23   24 2    
    47   23   25 1    
    48   25   26 1    
    49   25   27 1    
    50   25   87 1    
    51   26   88 1    
    52   26   89 1    
    53   26   90 1    
    54   27   28 am   BACKBONE|DICT|INTERRES
    55   27   91 1    
    56   28   29 2    
    57   28   30 1    
    58   30   31 1    
    59   30   32 1    
    60   30   92 1    
    61   31   93 1    
    62   31   94 1    
    63   31   95 1    
    64   32   33 am   BACKBONE|DICT|INTERRES
    65   32   96 1    
    66   33   34 2    
    67   33   35 1    
    68   35   36 1    
    69   35   37 1    
    70   35   97 1    
    71   36   98 1    
    72   36   99 1    
    73   36  100 1    
    74   37   38 am   BACKBONE|DICT|INTERRES
    75   37  101 1    
    76   38   39 2    
    77   38   40 1    
    78   40   41 1    
    79   40   42 1    
    80   40  102 1    
    81   41  103 1    
    82   41  104 1    
    83   41  105 1    
    84   42   43 am   BACKBONE|DICT|INTERRES
    85   42  106 1    
    86   43   44 2    
    87   43   45 1    
    88   45   46 1    
    89   45   49 1    
    90   45  107 1    
    91   46   47 1    
    92   46  108 1    
    93   46  109 1    
    94   47   48 1    
    95   48  110 1    
    96   48  111 1    
    97   49   50 am   BACKBONE|DICT|INTERRES
    98   49  112 1    
    99   50   51 2    
   100   50   52 1    
   101   52   53 1    
   102   52   54 1    
   103   52  113 1    
   104   53  114 1    
   105   53  115 1    
   106   53  116 1    
   107   54   55 am   BACKBONE|DICT|INTERRES
   108   54  117 1    
   109   55   56 2    
   110   55   57 1    
   111   57   58 1    
   112   57   59 1    
   113   57  118 1    
   114   58  119 1    
   115   58  120 1    
   116   58  121 1    
   117   59   60 am   BACKBONE|DICT|INTERRES
   118   59  122 1    
   119   60   61 2    
   120   60   62 1    
   121   62   63 1    
   122   62   64 1    
   123   62  123 1    
   124   63  124 1    
   125   63  125 1    
   126   63  126 1    
   127   64   65 am   BACKBONE|DICT|INTERRES
   128   64  127 1    
   129   65   66 2    
@<TRIPOS>SUBSTRUCTURE
     1 UNK         1 GROUP             0       ****    0 ROOT    
