@<TRIPOS>MOLECULE
3R135
127   129    1
SMALL
USER_CHARGES


@<TRIPOS>ATOM
      1 CA        -80.5739   25.2731  -69.4097 C.3       0 UNK        -0.1998 
      2 C         -81.2723   25.4953  -70.7420 C.2       0 UNK         0.4909 
      3 O         -80.7719   25.0506  -71.7739 O.2       0 UNK        -0.5240 
      4 N         -82.4408   26.1541  -70.7186 N.am      1 UNK        -0.4739 
      5 CA        -83.2560   26.5908  -71.8702 C.3       1 UNK         0.0864 
      6 C6        -82.5481   27.6576  -72.7494 C.3       11 UNK        -0.0881 
      7 S7        -81.9885   29.1310  -71.8305 S.3       11 UNK        -0.2682 
      8 C8        -80.7058   29.7576  -72.9671 C.3       11 UNK         0.0289 
      9 C9        -79.2883   29.4164  -72.5194 C.ar      11 UNK        -0.0687 
     10 C10       -78.9004   28.0907  -72.2928 C.ar      11 UNK        -0.0823 
     11 C11       -77.5927   27.7879  -71.9026 C.ar      11 UNK        -0.0830 
     12 C12       -76.6644   28.8191  -71.7474 C.ar      11 UNK        -0.1021 
     13 C13       -77.0255   30.1418  -72.0107 C.ar      11 UNK        -0.0753 
     14 C14       -78.3413   30.4366  -72.3789 C.ar      11 UNK        -0.0933 
     15 C15       -75.9890   31.2500  -71.9176 C.3       11 UNK         0.0166 
     16 S16       -75.3295   31.6935  -73.5588 S.3       11 UNK        -0.2615 
     17 C17       -74.2882   30.2515  -73.9876 C.3       11 UNK        -0.0865 
     18 CA        -72.7679   30.5685  -73.9380 C.3       10 UNK         0.0862 
     19 C         -72.1692   30.4024  -72.5058 C.2       10 UNK         0.5551 
     20 N         -71.2124   29.5112  -72.2727 N.am      10 UNK        -0.7319 
     21 O         -72.5642   31.1118  -71.5852 O.2       10 UNK        -0.5018 
     22 N         -72.0390   29.8409  -74.9898 N.am      10 UNK        -0.4509 
     23 C         -70.8434   30.2158  -75.4673 C.2       10 UNK         0.4899 
     24 O         -70.2861   31.2700  -75.1559 O.2       10 UNK        -0.4839 
     25 CA        -70.1505   29.2471  -76.4466 C.3       9 UNK         0.0222 
     26 CB        -68.6333   29.5033  -76.5677 C.3       9 UNK        -0.1966 
     27 N         -70.4078   27.8320  -76.1526 N.am      9 UNK        -0.4218 
     28 C         -70.1548   27.1736  -75.0082 C.2       9 UNK         0.5020 
     29 O         -69.6534   27.7042  -74.0164 O.2       9 UNK        -0.5274 
     30 CA        -70.5570   25.6879  -74.9249 C.3       8 UNK         0.0270 
     31 CB        -71.5356   25.4542  -73.7595 C.3       8 UNK        -0.1976 
     32 N         -71.1726   25.2041  -76.1617 N.am      8 UNK        -0.4313 
     33 C         -70.5106   24.6792  -77.2018 C.2       8 UNK         0.5041 
     34 O         -69.3011   24.4497  -77.2007 O.2       8 UNK        -0.5577 
     35 CA        -71.3341   24.3898  -78.4716 C.3       7 UNK         0.0284 
     36 CB        -71.7653   22.9147  -78.5080 C.3       7 UNK        -0.1958 
     37 N         -72.5198   25.2454  -78.6036 N.am      7 UNK        -0.4454 
     38 C         -72.4904   26.5735  -78.7917 C.2       7 UNK         0.5089 
     39 O         -71.4527   27.2225  -78.9136 O.2       7 UNK        -0.5125 
     40 CA        -73.8411   27.3075  -78.7626 C.3       6 UNK         0.0408 
     41 CB        -74.4696   27.3458  -80.1639 C.3       6 UNK        -0.1791 
     42 N         -74.7854   26.7069  -77.8163 N.am      6 UNK        -0.4762 
     43 C         -74.6493   26.7136  -76.4808 C.2       6 UNK         0.5007 
     44 O         -73.7038   27.2583  -75.9045 O.2       6 UNK        -0.5032 
     45 CA        -75.7096   25.9321  -75.6683 C.3       5 UNK         0.0783 
     46 C46       -75.8982   26.4867  -74.2319 C.3       11 UNK        -0.0857 
     47 S47       -77.0145   25.4263  -73.2475 S.3       11 UNK        -0.2512 
     48 C48       -77.1649   26.3449  -71.6833 C.3       11 UNK         0.0225 
     49 N         -76.9796   25.7413  -76.3909 N.am      5 UNK        -0.4615 
     50 C         -77.8432   26.6941  -76.7761 C.2       4 UNK         0.5053 
     51 O         -77.6495   27.9018  -76.6420 O.2       4 UNK        -0.5105 
     52 CA        -79.1384   26.2096  -77.4514 C.3       4 UNK         0.0263 
     53 CB        -78.9290   26.0619  -78.9678 C.3       4 UNK        -0.1981 
     54 N         -79.6269   24.9412  -76.8979 N.am      4 UNK        -0.4224 
     55 C         -80.2407   24.8313  -75.7115 C.2       3 UNK         0.4895 
     56 O         -80.5058   25.7932  -74.9900 O.2       3 UNK        -0.5091 
     57 CA        -80.6020   23.4084  -75.2620 C.3       3 UNK         0.0250 
     58 CB        -79.3768   22.7059  -74.6532 C.3       3 UNK        -0.1996 
     59 N         -81.6608   23.4511  -74.2530 N.am      3 UNK        -0.4254 
     60 C         -82.8370   22.8128  -74.3359 C.2       2 UNK         0.5004 
     61 O         -83.1531   22.0851  -75.2785 O.2       2 UNK        -0.5226 
     62 CA        -83.8381   22.9931  -73.1763 C.3       2 UNK         0.0269 
     63 CB        -83.8303   21.7560  -72.2632 C.3       2 UNK        -0.1926 
     64 N         -83.5727   24.1818  -72.3644 N.am      2 UNK        -0.4687 
     65 C         -83.8061   25.4420  -72.7539 C.2       1 UNK         0.5165 
     66 O         -84.4340   25.7148  -73.7787 O.2       1 UNK        -0.5079 
     67 H67       -80.2466   24.2373  -69.3235 H         1 UNK         0.0900 
     68 H68       -81.2281   25.4922  -68.5661 H         1 UNK         0.0900 
     69 H69       -79.6975   25.9161  -69.3363 H         1 UNK         0.0900 
     70 H70       -82.7970   26.4593  -69.8231 H         1 UNK         0.2959 
     71 H71       -84.1412   27.0618  -71.4400 H         1 UNK         0.1079 
     72 H72       -81.6962   27.2099  -73.2582 H         1 UNK         0.0837 
     73 H73       -83.2141   28.0107  -73.5391 H         1 UNK         0.0837 
     74 H74       -80.8663   29.3699  -73.9741 H         1 UNK         0.0685 
     75 H75       -80.8288   30.8392  -73.0399 H         1 UNK         0.0685 
     76 H76       -79.6077   27.2873  -72.4363 H         1 UNK         0.1434 
     77 H77       -75.6495   28.5877  -71.4543 H         1 UNK         0.1329 
     78 H78       -78.6183   31.4625  -72.5801 H         1 UNK         0.1335 
     79 H79       -75.1740   30.9609  -71.2536 H         1 UNK         0.0680 
     80 H80       -76.4434   32.1357  -71.4712 H         1 UNK         0.0680 
     81 H81       -74.5790   29.9650  -75.0000 H         1 UNK         0.1032 
     82 H82       -74.5301   29.3863  -73.3716 H         1 UNK         0.1032 
     83 H83       -72.6523   31.6279  -74.1762 H         1 UNK         0.0461 
     84 H84       -70.8182   28.9447  -73.0163 H         1 UNK         0.3453 
     85 H85       -70.8384   29.4335  -71.3408 H         1 UNK         0.3453 
     86 H86       -72.4340   28.9558  -75.2866 H         1 UNK         0.2984 
     87 H87       -70.5958   29.4396  -77.4235 H         1 UNK         0.0554 
     88 H88       -68.1720   28.8215  -77.2820 H         1 UNK         0.0847 
     89 H89       -68.1255   29.3807  -75.6104 H         1 UNK         0.0847 
     90 H90       -68.4321   30.5174  -76.9152 H         1 UNK         0.0847 
     91 H91       -70.8239   27.3156  -76.9188 H         1 UNK         0.3141 
     92 H92       -69.6480   25.1171  -74.7240 H         1 UNK         0.0743 
     93 H93       -72.4438   26.0477  -73.8656 H         1 UNK         0.0784 
     94 H94       -71.8250   24.4057  -73.6869 H         1 UNK         0.0784 
     95 H95       -71.0810   25.7282  -72.8064 H         1 UNK         0.0784 
     96 H96       -72.1615   25.3818  -76.2635 H         1 UNK         0.3213 
     97 H97       -70.6864   24.5799  -79.3305 H         1 UNK         0.0855 
     98 H98       -72.4308   22.6657  -77.6805 H         1 UNK         0.0814 
     99 H99       -70.8995   22.2544  -78.4387 H         1 UNK         0.0814 
    100 H100      -72.2791   22.6733  -79.4387 H         1 UNK         0.0814 
    101 H101      -73.4201   24.7955  -78.5234 H         1 UNK         0.3105 
    102 H102      -73.6537   28.3355  -78.4444 H         1 UNK         0.0547 
    103 H103      -74.6986   26.3463  -80.5356 H         1 UNK         0.0837 
    104 H104      -75.3927   27.9259  -80.1686 H         1 UNK         0.0837 
    105 H105      -73.7928   27.8125  -80.8811 H         1 UNK         0.0837 
    106 H106      -75.5970   26.2504  -78.2064 H         1 UNK         0.3020 
    107 H107      -75.2830   24.9333  -75.5624 H         1 UNK         0.1245 
    108 H108      -74.9452   26.5517  -73.7041 H         1 UNK         0.0781 
    109 H109      -76.3004   27.4998  -74.2759 H         1 UNK         0.0781 
    110 H110      -77.8965   25.8408  -71.0512 H         1 UNK         0.0836 
    111 H111      -76.2142   26.2976  -71.1501 H         1 UNK         0.0836 
    112 H112      -77.2444   24.7804  -76.5489 H         1 UNK         0.3022 
    113 H113      -79.9007   26.9751  -77.2884 H         1 UNK         0.0747 
    114 H114      -79.8598   25.8011  -79.4720 H         1 UNK         0.0793 
    115 H115      -78.5776   26.9975  -79.4056 H         1 UNK         0.0793 
    116 H116      -78.1920   25.2937  -79.2053 H         1 UNK         0.0793 
    117 H117      -79.4622   24.1082  -77.4452 H         1 UNK         0.3047 
    118 H118      -80.9303   22.8511  -76.1419 H         1 UNK         0.0822 
    119 H119      -79.6095   21.6773  -74.3772 H         1 UNK         0.0807 
    120 H120      -79.0281   23.2194  -73.7562 H         1 UNK         0.0807 
    121 H121      -78.5443   22.6720  -75.3567 H         1 UNK         0.0807 
    122 H122      -81.4853   24.0768  -73.4708 H         1 UNK         0.2946 
    123 H123      -84.8326   23.0891  -73.6185 H         1 UNK         0.1144 
    124 H124      -84.5806   21.8380  -71.4765 H         1 UNK         0.0793 
    125 H125      -82.8588   21.6107  -71.7889 H         1 UNK         0.0793 
    126 H126      -84.0550   20.8511  -72.8298 H         1 UNK         0.0793 
    127 H127      -83.0335   24.0481  -71.5209 H         1 UNK         0.2896 
@<TRIPOS>BOND
     1    1    2 1    
     2    1   67 1    
     3    1   68 1    
     4    1   69 1    
     5    2    3 2    
     6    2    4 am   BACKBONE|DICT|INTERRES
     7    4    5 1    
     8    4   70 1    
     9    5    6 1    
    10    5   65 1    
    11    5   71 1    
    12    6    7 1    
    13    6   72 1    
    14    6   73 1    
    15    7    8 1    
    16    8    9 1    
    17    8   74 1    
    18    8   75 1    
    19    9   10 ar   
    20    9   14 ar   
    21   10   11 ar   
    22   10   76 1    
    23   11   12 ar   
    24   11   48 1    
    25   12   13 ar   
    26   12   77 1    
    27   13   14 ar   
    28   13   15 1    
    29   14   78 1    
    30   15   16 1    
    31   15   79 1    
    32   15   80 1    
    33   16   17 1    
    34   17   18 1    
    35   17   81 1    
    36   17   82 1    
    37   18   19 1    
    38   18   22 1    
    39   18   83 1    
    40   19   20 am   BACKBONE|DICT|INTERRES
    41   19   21 2    
    42   20   84 1    
    43   20   85 1    
    44   22   23 am   BACKBONE|DICT|INTERRES
    45   22   86 1    
    46   23   24 2    
    47   23   25 1    
    48   25   26 1    
    49   25   27 1    
    50   25   87 1    
    51   26   88 1    
    52   26   89 1    
    53   26   90 1    
    54   27   28 am   BACKBONE|DICT|INTERRES
    55   27   91 1    
    56   28   29 2    
    57   28   30 1    
    58   30   31 1    
    59   30   32 1    
    60   30   92 1    
    61   31   93 1    
    62   31   94 1    
    63   31   95 1    
    64   32   33 am   BACKBONE|DICT|INTERRES
    65   32   96 1    
    66   33   34 2    
    67   33   35 1    
    68   35   36 1    
    69   35   37 1    
    70   35   97 1    
    71   36   98 1    
    72   36   99 1    
    73   36  100 1    
    74   37   38 am   BACKBONE|DICT|INTERRES
    75   37  101 1    
    76   38   39 2    
    77   38   40 1    
    78   40   41 1    
    79   40   42 1    
    80   40  102 1    
    81   41  103 1    
    82   41  104 1    
    83   41  105 1    
    84   42   43 am   BACKBONE|DICT|INTERRES
    85   42  106 1    
    86   43   44 2    
    87   43   45 1    
    88   45   46 1    
    89   45   49 1    
    90   45  107 1    
    91   46   47 1    
    92   46  108 1    
    93   46  109 1    
    94   47   48 1    
    95   48  110 1    
    96   48  111 1    
    97   49   50 am   BACKBONE|DICT|INTERRES
    98   49  112 1    
    99   50   51 2    
   100   50   52 1    
   101   52   53 1    
   102   52   54 1    
   103   52  113 1    
   104   53  114 1    
   105   53  115 1    
   106   53  116 1    
   107   54   55 am   BACKBONE|DICT|INTERRES
   108   54  117 1    
   109   55   56 2    
   110   55   57 1    
   111   57   58 1    
   112   57   59 1    
   113   57  118 1    
   114   58  119 1    
   115   58  120 1    
   116   58  121 1    
   117   59   60 am   BACKBONE|DICT|INTERRES
   118   59  122 1    
   119   60   61 2    
   120   60   62 1    
   121   62   63 1    
   122   62   64 1    
   123   62  123 1    
   124   63  124 1    
   125   63  125 1    
   126   63  126 1    
   127   64   65 am   BACKBONE|DICT|INTERRES
   128   64  127 1    
   129   65   66 2    
@<TRIPOS>SUBSTRUCTURE
     1 UNK         1 GROUP             0       ****    0 ROOT    
