@<TRIPOS>MOLECULE
3R135
127   129    1
SMALL
USER_CHARGES


@<TRIPOS>ATOM
      1 CA        -82.3053   30.7353  -74.1227 C.3       0 UNK        -0.1998 
      2 C         -81.0377   29.9346  -73.8672 C.2       0 UNK         0.4909 
      3 O         -79.9372   30.4417  -74.0872 O.2       0 UNK        -0.5240 
      4 N         -81.1802   28.6829  -73.4132 N.am      1 UNK        -0.4739 
      5 CA        -80.0851   27.7594  -73.0928 C.3       1 UNK         0.0864 
      6 C6        -80.5394   26.6552  -72.1013 C.3       11 UNK        -0.0881 
      7 S7        -80.9163   27.3353  -70.4528 S.3       11 UNK        -0.2682 
      8 C8        -79.4383   26.8317  -69.5100 C.3       11 UNK         0.0289 
      9 C9        -78.1611   27.4577  -70.0570 C.ar      11 UNK        -0.0687 
     10 C10       -77.1970   26.6679  -70.6933 C.ar      11 UNK        -0.0823 
     11 C11       -76.0199   27.2408  -71.1978 C.ar      11 UNK        -0.0830 
     12 C12       -75.8158   28.6149  -71.0332 C.ar      11 UNK        -0.1021 
     13 C13       -76.7679   29.4161  -70.3954 C.ar      11 UNK        -0.0753 
     14 C14       -77.9399   28.8292  -69.9119 C.ar      11 UNK        -0.0933 
     15 C15       -76.5257   30.9069  -70.1933 C.3       11 UNK         0.0166 
     16 S16       -76.3751   31.8094  -71.7686 S.3       11 UNK        -0.2615 
     17 C17       -74.5726   32.0939  -71.8409 C.3       11 UNK        -0.0865 
     18 CA        -74.0650   32.3536  -73.2816 C.3       10 UNK         0.0862 
     19 C         -72.5647   32.7587  -73.2630 C.2       10 UNK         0.5551 
     20 N         -72.2719   34.0433  -73.1165 N.am      10 UNK        -0.7319 
     21 O         -71.6710   31.9168  -73.3367 O.2       10 UNK        -0.5018 
     22 N         -74.3228   31.2025  -74.1587 N.am      10 UNK        -0.4509 
     23 C         -74.1883   31.2113  -75.4890 C.2       10 UNK         0.4899 
     24 O         -73.9046   32.2113  -76.1504 O.2       10 UNK        -0.4839 
     25 CA        -74.3550   29.8525  -76.1758 C.3       9 UNK         0.0222 
     26 CB        -74.4583   29.9539  -77.7103 C.3       9 UNK        -0.1966 
     27 N         -73.2135   29.0180  -75.8147 N.am      9 UNK        -0.4218 
     28 C         -73.2658   27.7052  -75.5760 C.2       9 UNK         0.5020 
     29 O         -74.2994   27.0318  -75.6120 O.2       9 UNK        -0.5274 
     30 CA        -71.9348   27.0326  -75.2276 C.3       8 UNK         0.0270 
     31 CB        -71.5262   27.2997  -73.7673 C.3       8 UNK        -0.1976 
     32 N         -72.0825   25.6005  -75.4508 N.am      8 UNK        -0.4313 
     33 C         -71.1088   24.7510  -75.7902 C.2       8 UNK         0.5041 
     34 O         -69.9240   25.0739  -75.8914 O.2       8 UNK        -0.5577 
     35 CA        -71.5137   23.2913  -76.0634 C.3       7 UNK         0.0284 
     36 CB        -71.1681   22.4060  -74.8549 C.3       7 UNK        -0.1958 
     37 N         -72.9339   23.1214  -76.3823 N.am      7 UNK        -0.4454 
     38 C         -73.5348   23.4925  -77.5184 C.2       7 UNK         0.5089 
     39 O         -72.9437   24.0364  -78.4514 O.2       7 UNK        -0.5125 
     40 CA        -75.0454   23.2104  -77.6481 C.3       6 UNK         0.0408 
     41 CB        -75.2957   21.7680  -78.1267 C.3       6 UNK        -0.1791 
     42 N         -75.8602   23.5215  -76.4629 N.am      6 UNK        -0.4762 
     43 C         -75.8235   22.9724  -75.2374 C.2       6 UNK         0.5007 
     44 O         -75.0229   22.0997  -74.8979 O.2       6 UNK        -0.5032 
     45 CA        -76.8711   23.4684  -74.2231 C.3       5 UNK         0.0783 
     46 C46       -76.4855   24.8363  -73.6076 C.3       11 UNK        -0.0857 
     47 S47       -75.2776   24.6811  -72.2552 S.3       11 UNK        -0.2512 
     48 C48       -74.9215   26.4382  -71.9035 C.3       11 UNK         0.0225 
     49 N         -78.2144   23.5105  -74.7990 N.am      5 UNK        -0.4615 
     50 C         -78.9382   22.4506  -75.1807 C.2       4 UNK         0.5053 
     51 O         -78.5475   21.2857  -75.1061 O.2       4 UNK        -0.5105 
     52 CA        -80.3467   22.7413  -75.7195 C.3       4 UNK         0.0263 
     53 CB        -81.3473   22.8673  -74.5585 C.3       4 UNK        -0.1981 
     54 N         -80.3689   23.9729  -76.5100 N.am      4 UNK        -0.4224 
     55 C         -80.2253   24.0242  -77.8404 C.2       3 UNK         0.4895 
     56 O         -80.1288   23.0288  -78.5593 O.2       3 UNK        -0.5091 
     57 CA        -80.1884   25.4196  -78.4913 C.3       3 UNK         0.0250 
     58 CB        -81.5955   25.8322  -78.9532 C.3       3 UNK        -0.1996 
     59 N         -79.6356   26.4723  -77.6331 N.am      3 UNK        -0.4254 
     60 C         -78.3620   26.5293  -77.2198 C.2       2 UNK         0.5004 
     61 O         -77.5148   25.6745  -77.4776 O.2       2 UNK        -0.5226 
     62 CA        -77.9747   27.7325  -76.3432 C.3       2 UNK         0.0269 
     63 CB        -77.8617   28.9976  -77.2101 C.3       2 UNK        -0.1926 
     64 N         -78.8532   28.0227  -75.2004 N.am      2 UNK        -0.4687 
     65 C         -79.4561   27.1618  -74.3688 C.2       1 UNK         0.5165 
     66 O         -79.5304   25.9500  -74.5718 O.2       1 UNK        -0.5079 
     67 H67       -82.3066   31.6384  -73.5131 H         1 UNK         0.0900 
     68 H68       -82.3573   31.0308  -75.1703 H         1 UNK         0.0900 
     69 H69       -83.2031   30.1647  -73.8855 H         1 UNK         0.0900 
     70 H70       -82.1095   28.3180  -73.2598 H         1 UNK         0.2959 
     71 H71       -79.2883   28.3288  -72.6078 H         1 UNK         0.1079 
     72 H72       -81.4240   26.1391  -72.4789 H         1 UNK         0.0837 
     73 H73       -79.7736   25.8852  -71.9894 H         1 UNK         0.0837 
     74 H74       -79.5662   27.1321  -68.4691 H         1 UNK         0.0685 
     75 H75       -79.3690   25.7427  -69.5058 H         1 UNK         0.0685 
     76 H76       -77.3725   25.6061  -70.7854 H         1 UNK         0.1434 
     77 H77       -74.9044   29.0639  -71.4011 H         1 UNK         0.1329 
     78 H78       -78.6842   29.4369  -69.4153 H         1 UNK         0.1335 
     79 H79       -75.6337   31.0503  -69.5819 H         1 UNK         0.0680 
     80 H80       -77.3475   31.3521  -69.6304 H         1 UNK         0.0680 
     81 H81       -74.3520   32.9497  -71.1995 H         1 UNK         0.1032 
     82 H82       -74.0440   31.2460  -71.4023 H         1 UNK         0.1032 
     83 H83       -74.6287   33.1963  -73.6881 H         1 UNK         0.0461 
     84 H84       -72.9977   34.7399  -73.0475 H         1 UNK         0.3453 
     85 H85       -71.3042   34.3248  -73.0865 H         1 UNK         0.3453 
     86 H86       -74.5414   30.3331  -73.6972 H         1 UNK         0.2984 
     87 H87       -75.2759   29.4108  -75.7914 H         1 UNK         0.0554 
     88 H88       -75.2818   30.6053  -78.0053 H         1 UNK         0.0847 
     89 H89       -74.6383   28.9768  -78.1589 H         1 UNK         0.0847 
     90 H90       -73.5472   30.3601  -78.1510 H         1 UNK         0.0847 
     91 H91       -72.3299   29.5016  -75.7195 H         1 UNK         0.3141 
     92 H92       -71.1700   27.4261  -75.9009 H         1 UNK         0.0743 
     93 H93       -72.2370   26.8671  -73.0641 H         1 UNK         0.0784 
     94 H94       -70.5465   26.8739  -73.5498 H         1 UNK         0.0784 
     95 H95       -71.4657   28.3690  -73.5597 H         1 UNK         0.0784 
     96 H96       -73.0445   25.2828  -75.4546 H         1 UNK         0.3213 
     97 H97       -70.9311   22.9471  -76.9207 H         1 UNK         0.0855 
     98 H98       -71.7387   22.6921  -73.9702 H         1 UNK         0.0814 
     99 H99       -70.1100   22.4854  -74.6013 H         1 UNK         0.0814 
    100 H100      -71.3727   21.3552  -75.0609 H         1 UNK         0.0814 
    101 H101      -73.5204   22.6670  -75.6836 H         1 UNK         0.3105 
    102 H102      -75.4158   23.8780  -78.4279 H         1 UNK         0.0547 
    103 H103      -74.7662   21.5700  -79.0595 H         1 UNK         0.0837 
    104 H104      -74.9559   21.0306  -77.3989 H         1 UNK         0.0837 
    105 H105      -76.3554   21.5918  -78.3119 H         1 UNK         0.0837 
    106 H106      -76.5448   24.2574  -76.6281 H         1 UNK         0.3020 
    107 H107      -76.9099   22.7289  -73.4194 H         1 UNK         0.1245 
    108 H108      -77.3674   25.3099  -73.1783 H         1 UNK         0.0781 
    109 H109      -76.1166   25.5302  -74.3648 H         1 UNK         0.0781 
    110 H110      -74.6708   26.9319  -72.8431 H         1 UNK         0.0836 
    111 H111      -74.0234   26.4776  -71.2857 H         1 UNK         0.0836 
    112 H112      -78.6492   24.4291  -74.8487 H         1 UNK         0.3022 
    113 H113      -80.6521   21.8947  -76.3384 H         1 UNK         0.0747 
    114 H114      -82.3608   23.0278  -74.9264 H         1 UNK         0.0793 
    115 H115      -81.3614   21.9583  -73.9556 H         1 UNK         0.0793 
    116 H116      -81.0975   23.6959  -73.8943 H         1 UNK         0.0793 
    117 H117      -80.3735   24.8432  -75.9881 H         1 UNK         0.3047 
    118 H118      -79.5487   25.3455  -79.3735 H         1 UNK         0.0822 
    119 H119      -81.5733   26.7728  -79.5041 H         1 UNK         0.0807 
    120 H120      -82.2787   25.9505  -78.1112 H         1 UNK         0.0807 
    121 H121      -82.0243   25.0805  -79.6176 H         1 UNK         0.0807 
    122 H122      -80.2640   27.2092  -77.3474 H         1 UNK         0.2946 
    123 H123      -76.9877   27.5137  -75.9305 H         1 UNK         0.1144 
    124 H124      -77.4691   29.8396  -76.6406 H         1 UNK         0.0793 
    125 H125      -78.8292   29.2979  -77.6139 H         1 UNK         0.0793 
    126 H126      -77.1933   28.8340  -78.0563 H         1 UNK         0.0793 
    127 H127      -78.9386   29.0036  -74.9468 H         1 UNK         0.2896 
@<TRIPOS>BOND
     1    1    2 1    
     2    1   67 1    
     3    1   68 1    
     4    1   69 1    
     5    2    3 2    
     6    2    4 am   BACKBONE|DICT|INTERRES
     7    4    5 1    
     8    4   70 1    
     9    5    6 1    
    10    5   65 1    
    11    5   71 1    
    12    6    7 1    
    13    6   72 1    
    14    6   73 1    
    15    7    8 1    
    16    8    9 1    
    17    8   74 1    
    18    8   75 1    
    19    9   10 ar   
    20    9   14 ar   
    21   10   11 ar   
    22   10   76 1    
    23   11   12 ar   
    24   11   48 1    
    25   12   13 ar   
    26   12   77 1    
    27   13   14 ar   
    28   13   15 1    
    29   14   78 1    
    30   15   16 1    
    31   15   79 1    
    32   15   80 1    
    33   16   17 1    
    34   17   18 1    
    35   17   81 1    
    36   17   82 1    
    37   18   19 1    
    38   18   22 1    
    39   18   83 1    
    40   19   20 am   BACKBONE|DICT|INTERRES
    41   19   21 2    
    42   20   84 1    
    43   20   85 1    
    44   22   23 am   BACKBONE|DICT|INTERRES
    45   22   86 1    
    46   23   24 2    
    47   23   25 1    
    48   25   26 1    
    49   25   27 1    
    50   25   87 1    
    51   26   88 1    
    52   26   89 1    
    53   26   90 1    
    54   27   28 am   BACKBONE|DICT|INTERRES
    55   27   91 1    
    56   28   29 2    
    57   28   30 1    
    58   30   31 1    
    59   30   32 1    
    60   30   92 1    
    61   31   93 1    
    62   31   94 1    
    63   31   95 1    
    64   32   33 am   BACKBONE|DICT|INTERRES
    65   32   96 1    
    66   33   34 2    
    67   33   35 1    
    68   35   36 1    
    69   35   37 1    
    70   35   97 1    
    71   36   98 1    
    72   36   99 1    
    73   36  100 1    
    74   37   38 am   BACKBONE|DICT|INTERRES
    75   37  101 1    
    76   38   39 2    
    77   38   40 1    
    78   40   41 1    
    79   40   42 1    
    80   40  102 1    
    81   41  103 1    
    82   41  104 1    
    83   41  105 1    
    84   42   43 am   BACKBONE|DICT|INTERRES
    85   42  106 1    
    86   43   44 2    
    87   43   45 1    
    88   45   46 1    
    89   45   49 1    
    90   45  107 1    
    91   46   47 1    
    92   46  108 1    
    93   46  109 1    
    94   47   48 1    
    95   48  110 1    
    96   48  111 1    
    97   49   50 am   BACKBONE|DICT|INTERRES
    98   49  112 1    
    99   50   51 2    
   100   50   52 1    
   101   52   53 1    
   102   52   54 1    
   103   52  113 1    
   104   53  114 1    
   105   53  115 1    
   106   53  116 1    
   107   54   55 am   BACKBONE|DICT|INTERRES
   108   54  117 1    
   109   55   56 2    
   110   55   57 1    
   111   57   58 1    
   112   57   59 1    
   113   57  118 1    
   114   58  119 1    
   115   58  120 1    
   116   58  121 1    
   117   59   60 am   BACKBONE|DICT|INTERRES
   118   59  122 1    
   119   60   61 2    
   120   60   62 1    
   121   62   63 1    
   122   62   64 1    
   123   62  123 1    
   124   63  124 1    
   125   63  125 1    
   126   63  126 1    
   127   64   65 am   BACKBONE|DICT|INTERRES
   128   64  127 1    
   129   65   66 2    
@<TRIPOS>SUBSTRUCTURE
     1 UNK         1 GROUP             0       ****    0 ROOT    
