@<TRIPOS>MOLECULE
3R135
127   129    1
SMALL
USER_CHARGES


@<TRIPOS>ATOM
      1 CA        -73.9733   23.0739  -71.2676 C.3       0 UNK        -0.1998 
      2 C         -75.4278   23.1154  -71.7118 C.2       0 UNK         0.4909 
      3 O         -75.8698   22.2207  -72.4300 O.2       0 UNK        -0.5240 
      4 N         -76.1689   24.1448  -71.2813 N.am      1 UNK        -0.4739 
      5 CA        -77.5478   24.4474  -71.6822 C.3       1 UNK         0.0864 
      6 C6        -78.0891   25.6131  -70.8170 C.3       11 UNK        -0.0881 
      7 S7        -79.8430   26.0401  -71.1004 S.3       11 UNK        -0.2682 
      8 C8        -79.9023   27.7776  -70.5469 C.3       11 UNK         0.0289 
      9 C9        -79.2121   28.7224  -71.5228 C.ar      11 UNK        -0.0687 
     10 C10       -79.9047   29.2294  -72.6271 C.ar      11 UNK        -0.0823 
     11 C11       -79.2699   30.0911  -73.5280 C.ar      11 UNK        -0.0830 
     12 C12       -77.9281   30.4301  -73.3272 C.ar      11 UNK        -0.1021 
     13 C13       -77.2256   29.9299  -72.2281 C.ar      11 UNK        -0.0753 
     14 C14       -77.8804   29.0957  -71.3186 C.ar      11 UNK        -0.0933 
     15 C15       -75.7435   30.2240  -72.0539 C.3       11 UNK         0.0166 
     16 S16       -75.3504   32.0005  -72.0141 S.3       11 UNK        -0.2615 
     17 C17       -73.5782   31.9265  -71.5730 C.3       11 UNK        -0.0865 
     18 CA        -72.6140   31.9652  -72.7899 C.3       10 UNK         0.0862 
     19 C         -71.1359   31.9809  -72.2967 C.2       10 UNK         0.5551 
     20 N         -70.3715   30.9043  -72.4499 N.am      10 UNK        -0.7319 
     21 O         -70.6797   32.9895  -71.7640 O.2       10 UNK        -0.5018 
     22 N         -72.9049   30.8977  -73.7597 N.am      10 UNK        -0.4509 
     23 C         -72.4168   30.8297  -75.0041 C.2       10 UNK         0.4899 
     24 O         -71.7762   31.7408  -75.5307 O.2       10 UNK        -0.4839 
     25 CA        -72.6832   29.5324  -75.7990 C.3       9 UNK         0.0222 
     26 CB        -71.4718   29.1398  -76.6703 C.3       9 UNK        -0.1966 
     27 N         -73.1292   28.3845  -74.9916 N.am      9 UNK        -0.4218 
     28 C         -72.4746   27.7799  -73.9860 C.2       9 UNK         0.5020 
     29 O         -71.3868   28.1607  -73.5500 O.2       9 UNK        -0.5274 
     30 CA        -73.1640   26.5730  -73.3281 C.3       8 UNK         0.0270 
     31 CB        -74.1594   27.0407  -72.2556 C.3       8 UNK        -0.1976 
     32 N         -73.8475   25.7245  -74.3092 N.am      8 UNK        -0.4313 
     33 C         -73.2494   24.7293  -74.9808 C.2       8 UNK         0.5041 
     34 O         -72.1083   24.3320  -74.7413 O.2       8 UNK        -0.5577 
     35 CA        -74.0282   24.0976  -76.1503 C.3       7 UNK         0.0284 
     36 CB        -75.0675   23.0754  -75.6682 C.3       7 UNK        -0.1958 
     37 N         -74.6675   25.1089  -76.9948 N.am      7 UNK        -0.4454 
     38 C         -73.9850   25.9704  -77.7651 C.2       7 UNK         0.5089 
     39 O         -72.7667   25.9103  -77.9307 O.2       7 UNK        -0.5125 
     40 CA        -74.7670   27.0909  -78.4779 C.3       6 UNK         0.0408 
     41 CB        -74.7880   26.8480  -79.9959 C.3       6 UNK        -0.1791 
     42 N         -76.1429   27.2787  -78.0131 N.am      6 UNK        -0.4762 
     43 C         -76.5246   27.6690  -76.7879 C.2       6 UNK         0.5007 
     44 O         -75.7354   27.9151  -75.8755 O.2       6 UNK        -0.5032 
     45 CA        -78.0429   27.7829  -76.5392 C.3       5 UNK         0.0783 
     46 C46       -78.4890   29.2614  -76.6290 C.3       11 UNK        -0.0857 
     47 S47       -80.2147   29.4777  -76.0748 S.3       11 UNK        -0.2512 
     48 C48       -80.0364   30.6692  -74.7093 C.3       11 UNK         0.0225 
     49 N         -78.8341   26.9404  -77.4497 N.am      5 UNK        -0.4615 
     50 C         -78.8184   25.6045  -77.4749 C.2       4 UNK         0.5053 
     51 O         -78.1049   24.9095  -76.7469 O.2       4 UNK        -0.5105 
     52 CA        -79.7302   24.9251  -78.5004 C.3       4 UNK         0.0263 
     53 CB        -78.9143   24.4261  -79.7041 C.3       4 UNK        -0.1981 
     54 N         -80.3408   23.7933  -77.8188 N.am      4 UNK        -0.4224 
     55 C         -81.6533   23.6094  -77.6380 C.2       3 UNK         0.4895 
     56 O         -82.5304   24.2225  -78.2478 O.2       3 UNK        -0.5091 
     57 CA        -82.0529   22.5956  -76.5490 C.3       3 UNK         0.0250 
     58 CB        -82.2651   21.2004  -77.1585 C.3       3 UNK        -0.1996 
     59 N         -81.0723   22.5093  -75.4578 N.am      3 UNK        -0.4254 
     60 C         -80.7568   23.5138  -74.6242 C.2       2 UNK         0.5004 
     61 O         -81.3157   24.6110  -74.6379 O.2       2 UNK        -0.5226 
     62 CA        -79.6095   23.2797  -73.6316 C.3       2 UNK         0.0269 
     63 CB        -79.0925   21.8238  -73.5929 C.3       2 UNK        -0.1926 
     64 N         -78.5257   24.1980  -73.9864 N.am      2 UNK        -0.4687 
     65 C         -77.6077   24.7724  -73.1982 C.2       1 UNK         0.5165 
     66 O         -76.7897   25.5693  -73.6609 O.2       1 UNK        -0.5079 
     67 H67       -73.3169   23.1656  -72.1328 H         1 UNK         0.0900 
     68 H68       -73.7578   22.1264  -70.7745 H         1 UNK         0.0900 
     69 H69       -73.7336   23.8792  -70.5736 H         1 UNK         0.0900 
     70 H70       -75.7349   24.8380  -70.6908 H         1 UNK         0.2959 
     71 H71       -78.1320   23.5562  -71.4594 H         1 UNK         0.1079 
     72 H72       -77.9838   25.3675  -69.7590 H         1 UNK         0.0837 
     73 H73       -77.4685   26.4918  -70.9817 H         1 UNK         0.0837 
     74 H74       -79.4561   27.8578  -69.5543 H         1 UNK         0.0685 
     75 H75       -80.9466   28.0721  -70.4332 H         1 UNK         0.0685 
     76 H76       -80.9374   28.9508  -72.7876 H         1 UNK         0.1434 
     77 H77       -77.4233   31.0818  -74.0271 H         1 UNK         0.1329 
     78 H78       -77.3428   28.7117  -70.4628 H         1 UNK         0.1335 
     79 H79       -75.3688   29.7559  -71.1424 H         1 UNK         0.0680 
     80 H80       -75.2138   29.7649  -72.8871 H         1 UNK         0.0680 
     81 H81       -73.3895   31.0410  -70.9630 H         1 UNK         0.1032 
     82 H82       -73.3793   32.7773  -70.9181 H         1 UNK         0.1032 
     83 H83       -72.7756   32.9144  -73.3046 H         1 UNK         0.0461 
     84 H84       -69.4171   30.9274  -72.1280 H         1 UNK         0.3453 
     85 H85       -70.7393   30.0622  -72.8775 H         1 UNK         0.3453 
     86 H86       -73.4113   30.1018  -73.4084 H         1 UNK         0.2984 
     87 H87       -73.5122   29.7604  -76.4702 H         1 UNK         0.0554 
     88 H88       -71.6731   28.2416  -77.2521 H         1 UNK         0.0847 
     89 H89       -70.5835   28.9538  -76.0658 H         1 UNK         0.0847 
     90 H90       -71.2223   29.9299  -77.3795 H         1 UNK         0.0847 
     91 H91       -74.0591   28.0422  -75.2344 H         1 UNK         0.3141 
     92 H92       -72.3875   25.9937  -72.8236 H         1 UNK         0.0743 
     93 H93       -75.0668   27.4527  -72.6970 H         1 UNK         0.0784 
     94 H94       -74.4523   26.2144  -71.6129 H         1 UNK         0.0784 
     95 H95       -73.7207   27.8029  -71.6100 H         1 UNK         0.0784 
     96 H96       -74.8170   25.9465  -74.5140 H         1 UNK         0.3213 
     97 H97       -73.3039   23.5594  -76.7661 H         1 UNK         0.0855 
     98 H98       -75.8727   23.5467  -75.1094 H         1 UNK         0.0814 
     99 H99       -74.6107   22.3306  -75.0151 H         1 UNK         0.0814 
    100 H100      -75.5161   22.5418  -76.5061 H         1 UNK         0.0814 
    101 H101      -75.6711   25.2131  -76.9161 H         1 UNK         0.3105 
    102 H102      -74.2287   28.0219  -78.2899 H         1 UNK         0.0547 
    103 H103      -73.7761   26.7440  -80.3902 H         1 UNK         0.0837 
    104 H104      -75.3312   25.9372  -80.2512 H         1 UNK         0.0837 
    105 H105      -75.2535   27.6788  -80.5263 H         1 UNK         0.0837 
    106 H106      -76.8709   27.0947  -78.6878 H         1 UNK         0.3020 
    107 H107      -78.2126   27.4282  -75.5187 H         1 UNK         0.1245 
    108 H108      -78.4100   29.6259  -77.6550 H         1 UNK         0.0781 
    109 H109      -77.8329   29.9016  -76.0390 H         1 UNK         0.0781 
    110 H110      -81.0302   30.9754  -74.3793 H         1 UNK         0.0836 
    111 H111      -79.5512   31.5736  -75.0801 H         1 UNK         0.0836 
    112 H112      -79.4651   27.4347  -78.0642 H         1 UNK         0.3022 
    113 H113      -80.4890   25.6328  -78.8418 H         1 UNK         0.0747 
    114 H114      -79.5484   23.9014  -80.4190 H         1 UNK         0.0793 
    115 H115      -78.4482   25.2581  -80.2333 H         1 UNK         0.0793 
    116 H116      -78.1187   23.7438  -79.4006 H         1 UNK         0.0793 
    117 H117      -79.7042   23.2678  -77.2351 H         1 UNK         0.3047 
    118 H118      -82.9995   22.9320  -76.1204 H         1 UNK         0.0822 
    119 H119      -83.0080   21.2333  -77.9568 H         1 UNK         0.0807 
    120 H120      -82.6255   20.4914  -76.4128 H         1 UNK         0.0807 
    121 H121      -81.3449   20.8007  -77.5867 H         1 UNK         0.0807 
    122 H122      -80.5697   21.6378  -75.3687 H         1 UNK         0.2946 
    123 H123      -80.0210   23.5364  -72.6547 H         1 UNK         0.1144 
    124 H124      -79.9038   21.1165  -73.4151 H         1 UNK         0.0793 
    125 H125      -78.3781   21.6732  -72.7860 H         1 UNK         0.0793 
    126 H126      -78.5938   21.5425  -74.5213 H         1 UNK         0.0793 
    127 H127      -78.5033   24.4649  -74.9674 H         1 UNK         0.2896 
@<TRIPOS>BOND
     1    1    2 1    
     2    1   67 1    
     3    1   68 1    
     4    1   69 1    
     5    2    3 2    
     6    2    4 am   BACKBONE|DICT|INTERRES
     7    4    5 1    
     8    4   70 1    
     9    5    6 1    
    10    5   65 1    
    11    5   71 1    
    12    6    7 1    
    13    6   72 1    
    14    6   73 1    
    15    7    8 1    
    16    8    9 1    
    17    8   74 1    
    18    8   75 1    
    19    9   10 ar   
    20    9   14 ar   
    21   10   11 ar   
    22   10   76 1    
    23   11   12 ar   
    24   11   48 1    
    25   12   13 ar   
    26   12   77 1    
    27   13   14 ar   
    28   13   15 1    
    29   14   78 1    
    30   15   16 1    
    31   15   79 1    
    32   15   80 1    
    33   16   17 1    
    34   17   18 1    
    35   17   81 1    
    36   17   82 1    
    37   18   19 1    
    38   18   22 1    
    39   18   83 1    
    40   19   20 am   BACKBONE|DICT|INTERRES
    41   19   21 2    
    42   20   84 1    
    43   20   85 1    
    44   22   23 am   BACKBONE|DICT|INTERRES
    45   22   86 1    
    46   23   24 2    
    47   23   25 1    
    48   25   26 1    
    49   25   27 1    
    50   25   87 1    
    51   26   88 1    
    52   26   89 1    
    53   26   90 1    
    54   27   28 am   BACKBONE|DICT|INTERRES
    55   27   91 1    
    56   28   29 2    
    57   28   30 1    
    58   30   31 1    
    59   30   32 1    
    60   30   92 1    
    61   31   93 1    
    62   31   94 1    
    63   31   95 1    
    64   32   33 am   BACKBONE|DICT|INTERRES
    65   32   96 1    
    66   33   34 2    
    67   33   35 1    
    68   35   36 1    
    69   35   37 1    
    70   35   97 1    
    71   36   98 1    
    72   36   99 1    
    73   36  100 1    
    74   37   38 am   BACKBONE|DICT|INTERRES
    75   37  101 1    
    76   38   39 2    
    77   38   40 1    
    78   40   41 1    
    79   40   42 1    
    80   40  102 1    
    81   41  103 1    
    82   41  104 1    
    83   41  105 1    
    84   42   43 am   BACKBONE|DICT|INTERRES
    85   42  106 1    
    86   43   44 2    
    87   43   45 1    
    88   45   46 1    
    89   45   49 1    
    90   45  107 1    
    91   46   47 1    
    92   46  108 1    
    93   46  109 1    
    94   47   48 1    
    95   48  110 1    
    96   48  111 1    
    97   49   50 am   BACKBONE|DICT|INTERRES
    98   49  112 1    
    99   50   51 2    
   100   50   52 1    
   101   52   53 1    
   102   52   54 1    
   103   52  113 1    
   104   53  114 1    
   105   53  115 1    
   106   53  116 1    
   107   54   55 am   BACKBONE|DICT|INTERRES
   108   54  117 1    
   109   55   56 2    
   110   55   57 1    
   111   57   58 1    
   112   57   59 1    
   113   57  118 1    
   114   58  119 1    
   115   58  120 1    
   116   58  121 1    
   117   59   60 am   BACKBONE|DICT|INTERRES
   118   59  122 1    
   119   60   61 2    
   120   60   62 1    
   121   62   63 1    
   122   62   64 1    
   123   62  123 1    
   124   63  124 1    
   125   63  125 1    
   126   63  126 1    
   127   64   65 am   BACKBONE|DICT|INTERRES
   128   64  127 1    
   129   65   66 2    
@<TRIPOS>SUBSTRUCTURE
     1 UNK         1 GROUP             0       ****    0 ROOT    
