@<TRIPOS>MOLECULE
3R135
127   129    1
SMALL
USER_CHARGES


@<TRIPOS>ATOM
      1 CA        -80.8705   25.9084  -70.5453 C.3       0 UNK        -0.1998 
      2 C         -81.9805   26.3537  -71.4860 C.2       0 UNK         0.4909 
      3 O         -83.1326   25.9588  -71.3059 O.2       0 UNK        -0.5240 
      4 N         -81.6414   27.1707  -72.4913 N.am      1 UNK        -0.4739 
      5 CA        -82.5511   27.6370  -73.5475 C.3       1 UNK         0.0864 
      6 C6        -82.0088   28.9021  -74.2666 C.3       11 UNK        -0.0881 
      7 S7        -80.2510   28.7770  -74.7594 S.3       11 UNK        -0.2682 
      8 C8        -79.4663   29.9138  -73.5734 C.3       11 UNK         0.0289 
      9 C9        -78.0432   29.4820  -73.2597 C.ar      11 UNK        -0.0687 
     10 C10       -77.8033   28.5923  -72.2091 C.ar      11 UNK        -0.0823 
     11 C11       -76.5020   28.1859  -71.9038 C.ar      11 UNK        -0.0830 
     12 C12       -75.4326   28.6900  -72.6500 C.ar      11 UNK        -0.1021 
     13 C13       -75.6590   29.5796  -73.7053 C.ar      11 UNK        -0.0753 
     14 C14       -76.9675   29.9728  -74.0058 C.ar      11 UNK        -0.0933 
     15 C15       -74.4966   30.0908  -74.5426 C.3       11 UNK         0.0166 
     16 S16       -73.9565   31.7476  -74.0270 S.3       11 UNK        -0.2615 
     17 C17       -72.9506   31.3722  -72.5507 C.3       11 UNK        -0.0865 
     18 CA        -71.4298   31.4949  -72.8275 C.3       10 UNK         0.0862 
     19 C         -70.6131   31.4323  -71.5038 C.2       10 UNK         0.5551 
     20 N         -69.7298   30.4598  -71.3094 N.am      10 UNK        -0.7319 
     21 O         -70.7774   32.2912  -70.6409 O.2       10 UNK        -0.5018 
     22 N         -70.9767   30.5293  -73.8438 N.am      10 UNK        -0.4509 
     23 C         -69.9773   30.7375  -74.7063 C.2       10 UNK         0.4899 
     24 O         -69.3845   31.8121  -74.8101 O.2       10 UNK        -0.4839 
     25 CA        -69.5385   29.5690  -75.6135 C.3       9 UNK         0.0222 
     26 CB        -68.2449   28.9279  -75.0733 C.3       9 UNK        -0.1966 
     27 N         -70.5455   28.5344  -75.9033 N.am      9 UNK        -0.4218 
     28 C         -71.1515   27.6723  -75.0762 C.2       9 UNK         0.5020 
     29 O         -71.0355   27.7072  -73.8497 O.2       9 UNK        -0.5274 
     30 CA        -72.0561   26.6144  -75.7415 C.3       8 UNK         0.0270 
     31 CB        -72.5266   25.5403  -74.7428 C.3       8 UNK        -0.1976 
     32 N         -73.2158   27.2158  -76.4162 N.am      8 UNK        -0.4313 
     33 C         -73.1552   27.8607  -77.5936 C.2       8 UNK         0.5041 
     34 O         -72.1009   27.9882  -78.2213 O.2       8 UNK        -0.5577 
     35 CA        -74.4293   28.5251  -78.1590 C.3       7 UNK         0.0284 
     36 CB        -74.5389   28.3703  -79.6916 C.3       7 UNK        -0.1958 
     37 N         -75.6799   28.1434  -77.4935 N.am      7 UNK        -0.4454 
     38 C         -76.2950   26.9543  -77.5145 C.2       7 UNK         0.5089 
     39 O         -75.9066   25.9693  -78.1454 O.2       7 UNK        -0.5125 
     40 CA        -77.5626   26.8578  -76.6460 C.3       6 UNK         0.0408 
     41 CB        -78.8071   26.6619  -77.5258 C.3       6 UNK        -0.1791 
     42 N         -77.4910   25.7950  -75.6372 N.am      6 UNK        -0.4762 
     43 C         -76.4923   25.6410  -74.7525 C.2       6 UNK         0.5007 
     44 O         -75.5045   26.3737  -74.7317 O.2       6 UNK        -0.5032 
     45 CA        -76.5715   24.4834  -73.7371 C.3       5 UNK         0.0783 
     46 C46       -77.0279   24.9556  -72.3303 C.3       11 UNK        -0.0857 
     47 S47       -75.6361   25.5944  -71.3349 S.3       11 UNK        -0.2512 
     48 C48       -76.2534   27.2105  -70.7613 C.3       11 UNK         0.0225 
     49 N         -77.3813   23.3593  -74.2213 N.am      5 UNK        -0.4615 
     50 C         -77.0295   22.0712  -74.0904 C.2       4 UNK         0.5053 
     51 O         -75.9825   21.7021  -73.5572 O.2       4 UNK        -0.5105 
     52 CA        -77.9969   20.9944  -74.6232 C.3       4 UNK         0.0263 
     53 CB        -78.8233   20.4038  -73.4688 C.3       4 UNK        -0.1981 
     54 N         -78.9094   21.4776  -75.6593 N.am      4 UNK        -0.4224 
     55 C         -78.5450   21.8747  -76.8856 C.2       3 UNK         0.4895 
     56 O         -77.4028   21.7534  -77.3290 O.2       3 UNK        -0.5091 
     57 CA        -79.6235   22.5393  -77.7660 C.3       3 UNK         0.0250 
     58 CB        -80.0706   21.5743  -78.8768 C.3       3 UNK        -0.1996 
     59 N         -80.8178   23.0443  -77.0682 N.am      3 UNK        -0.4254 
     60 C         -80.8426   23.9005  -76.0369 C.2       2 UNK         0.5004 
     61 O         -79.8332   24.3024  -75.4500 O.2       2 UNK        -0.5226 
     62 CA        -82.2254   24.3483  -75.5544 C.3       2 UNK         0.0269 
     63 CB        -82.9318   23.2228  -74.7773 C.3       2 UNK        -0.1926 
     64 N         -82.0619   25.5066  -74.6822 N.am      2 UNK        -0.4687 
     65 C         -82.9239   26.5209  -74.5496 C.2       1 UNK         0.5165 
     66 O         -83.9878   26.5936  -75.1671 O.2       1 UNK        -0.5079 
     67 H67       -81.0510   26.2950  -69.5426 H         1 UNK         0.0900 
     68 H68       -79.8913   26.2549  -70.8728 H         1 UNK         0.0900 
     69 H69       -80.8404   24.8204  -70.4905 H         1 UNK         0.0900 
     70 H70       -80.6818   27.4621  -72.6062 H         1 UNK         0.2959 
     71 H71       -83.4898   27.9200  -73.0653 H         1 UNK         0.1079 
     72 H72       -82.6021   29.1316  -75.1541 H         1 UNK         0.0837 
     73 H73       -82.1383   29.7670  -73.6147 H         1 UNK         0.0837 
     74 H74       -80.0416   29.9500  -72.6470 H         1 UNK         0.0685 
     75 H75       -79.4790   30.9254  -73.9818 H         1 UNK         0.0685 
     76 H76       -78.6327   28.2171  -71.6275 H         1 UNK         0.1434 
     77 H77       -74.4271   28.3622  -72.4255 H         1 UNK         0.1329 
     78 H78       -77.1488   30.6607  -74.8201 H         1 UNK         0.1335 
     79 H79       -73.6561   29.3973  -74.5022 H         1 UNK         0.0680 
     80 H80       -74.7990   30.1430  -75.5877 H         1 UNK         0.0680 
     81 H81       -73.2550   32.0748  -71.7725 H         1 UNK         0.1032 
     82 H82       -73.1907   30.3812  -72.1652 H         1 UNK         0.1032 
     83 H83       -71.2623   32.5002  -73.2191 H         1 UNK         0.0461 
     84 H84       -69.5981   29.7448  -72.0071 H         1 UNK         0.3453 
     85 H85       -69.2033   30.4332  -70.4505 H         1 UNK         0.3453 
     86 H86       -71.3297   29.5808  -73.7644 H         1 UNK         0.2984 
     87 H87       -69.3017   30.0144  -76.5810 H         1 UNK         0.0554 
     88 H88       -67.4625   29.6765  -74.9407 H         1 UNK         0.0847 
     89 H89       -67.8575   28.1762  -75.7610 H         1 UNK         0.0847 
     90 H90       -68.4006   28.4486  -74.1063 H         1 UNK         0.0847 
     91 H91       -70.8112   28.4504  -76.8834 H         1 UNK         0.3141 
     92 H92       -71.4507   26.1040  -76.4937 H         1 UNK         0.0743 
     93 H93       -71.6756   25.0102  -74.3136 H         1 UNK         0.0784 
     94 H94       -73.0854   25.9748  -73.9129 H         1 UNK         0.0784 
     95 H95       -73.1619   24.7974  -75.2253 H         1 UNK         0.0784 
     96 H96       -74.1086   27.1237  -75.9366 H         1 UNK         0.3213 
     97 H97       -74.3071   29.5905  -77.9585 H         1 UNK         0.0855 
     98 H98       -74.5715   27.3232  -79.9934 H         1 UNK         0.0814 
     99 H99       -73.6821   28.8220  -80.1932 H         1 UNK         0.0814 
    100 H100      -75.4320   28.8605  -80.0788 H         1 UNK         0.0814 
    101 H101      -76.0981   28.8634  -76.9213 H         1 UNK         0.3105 
    102 H102      -77.6844   27.7951  -76.0999 H         1 UNK         0.0547 
    103 H103      -78.8949   27.4631  -78.2605 H         1 UNK         0.0837 
    104 H104      -78.7676   25.7207  -78.0732 H         1 UNK         0.0837 
    105 H105      -79.7207   26.6701  -76.9319 H         1 UNK         0.0837 
    106 H106      -78.2998   25.1804  -75.5899 H         1 UNK         0.3020 
    107 H107      -75.5392   24.1336  -73.6562 H         1 UNK         0.1245 
    108 H108      -77.4440   24.1179  -71.7684 H         1 UNK         0.0781 
    109 H109      -77.8330   25.6885  -72.3990 H         1 UNK         0.0781 
    110 H110      -77.1592   27.0562  -70.1729 H         1 UNK         0.0836 
    111 H111      -75.5197   27.6435  -70.0801 H         1 UNK         0.0836 
    112 H112      -78.2653   23.5881  -74.6666 H         1 UNK         0.3022 
    113 H113      -77.3904   20.1957  -75.0557 H         1 UNK         0.0747 
    114 H114      -78.1740   20.0034  -72.6889 H         1 UNK         0.0793 
    115 H115      -79.4569   19.5853  -73.8112 H         1 UNK         0.0793 
    116 H116      -79.4639   21.1553  -73.0051 H         1 UNK         0.0793 
    117 H117      -79.8708   21.6181  -75.3869 H         1 UNK         0.3047 
    118 H118      -79.1450   23.3977  -78.2397 H         1 UNK         0.0822 
    119 H119      -80.7335   22.0660  -79.5891 H         1 UNK         0.0807 
    120 H120      -80.5943   20.7079  -78.4708 H         1 UNK         0.0807 
    121 H121      -79.2147   21.2018  -79.4419 H         1 UNK         0.0807 
    122 H122      -81.7026   22.7507  -77.4576 H         1 UNK         0.2946 
    123 H123      -82.8177   24.6263  -76.4294 H         1 UNK         0.1144 
    124 H124      -83.0835   22.3416  -75.4017 H         1 UNK         0.0793 
    125 H125      -83.9144   23.5412  -74.4283 H         1 UNK         0.0793 
    126 H126      -82.3547   22.9127  -73.9050 H         1 UNK         0.0793 
    127 H127      -81.1719   25.5515  -74.2033 H         1 UNK         0.2896 
@<TRIPOS>BOND
     1    1    2 1    
     2    1   67 1    
     3    1   68 1    
     4    1   69 1    
     5    2    3 2    
     6    2    4 am   BACKBONE|DICT|INTERRES
     7    4    5 1    
     8    4   70 1    
     9    5    6 1    
    10    5   65 1    
    11    5   71 1    
    12    6    7 1    
    13    6   72 1    
    14    6   73 1    
    15    7    8 1    
    16    8    9 1    
    17    8   74 1    
    18    8   75 1    
    19    9   10 ar   
    20    9   14 ar   
    21   10   11 ar   
    22   10   76 1    
    23   11   12 ar   
    24   11   48 1    
    25   12   13 ar   
    26   12   77 1    
    27   13   14 ar   
    28   13   15 1    
    29   14   78 1    
    30   15   16 1    
    31   15   79 1    
    32   15   80 1    
    33   16   17 1    
    34   17   18 1    
    35   17   81 1    
    36   17   82 1    
    37   18   19 1    
    38   18   22 1    
    39   18   83 1    
    40   19   20 am   BACKBONE|DICT|INTERRES
    41   19   21 2    
    42   20   84 1    
    43   20   85 1    
    44   22   23 am   BACKBONE|DICT|INTERRES
    45   22   86 1    
    46   23   24 2    
    47   23   25 1    
    48   25   26 1    
    49   25   27 1    
    50   25   87 1    
    51   26   88 1    
    52   26   89 1    
    53   26   90 1    
    54   27   28 am   BACKBONE|DICT|INTERRES
    55   27   91 1    
    56   28   29 2    
    57   28   30 1    
    58   30   31 1    
    59   30   32 1    
    60   30   92 1    
    61   31   93 1    
    62   31   94 1    
    63   31   95 1    
    64   32   33 am   BACKBONE|DICT|INTERRES
    65   32   96 1    
    66   33   34 2    
    67   33   35 1    
    68   35   36 1    
    69   35   37 1    
    70   35   97 1    
    71   36   98 1    
    72   36   99 1    
    73   36  100 1    
    74   37   38 am   BACKBONE|DICT|INTERRES
    75   37  101 1    
    76   38   39 2    
    77   38   40 1    
    78   40   41 1    
    79   40   42 1    
    80   40  102 1    
    81   41  103 1    
    82   41  104 1    
    83   41  105 1    
    84   42   43 am   BACKBONE|DICT|INTERRES
    85   42  106 1    
    86   43   44 2    
    87   43   45 1    
    88   45   46 1    
    89   45   49 1    
    90   45  107 1    
    91   46   47 1    
    92   46  108 1    
    93   46  109 1    
    94   47   48 1    
    95   48  110 1    
    96   48  111 1    
    97   49   50 am   BACKBONE|DICT|INTERRES
    98   49  112 1    
    99   50   51 2    
   100   50   52 1    
   101   52   53 1    
   102   52   54 1    
   103   52  113 1    
   104   53  114 1    
   105   53  115 1    
   106   53  116 1    
   107   54   55 am   BACKBONE|DICT|INTERRES
   108   54  117 1    
   109   55   56 2    
   110   55   57 1    
   111   57   58 1    
   112   57   59 1    
   113   57  118 1    
   114   58  119 1    
   115   58  120 1    
   116   58  121 1    
   117   59   60 am   BACKBONE|DICT|INTERRES
   118   59  122 1    
   119   60   61 2    
   120   60   62 1    
   121   62   63 1    
   122   62   64 1    
   123   62  123 1    
   124   63  124 1    
   125   63  125 1    
   126   63  126 1    
   127   64   65 am   BACKBONE|DICT|INTERRES
   128   64  127 1    
   129   65   66 2    
@<TRIPOS>SUBSTRUCTURE
     1 UNK         1 GROUP             0       ****    0 ROOT    
