@<TRIPOS>MOLECULE
3R135
127   129    1
SMALL
USER_CHARGES


@<TRIPOS>ATOM
      1 CA        -84.2466   24.0775  -73.8135 C.3       0 UNK        -0.1998 
      2 C         -83.0005   24.9180  -73.5832 C.2       0 UNK         0.4909 
      3 O         -81.8967   24.4620  -73.8830 O.2       0 UNK        -0.5240 
      4 N         -83.1681   26.1421  -73.0601 N.am      1 UNK        -0.4739 
      5 CA        -82.1013   27.1146  -72.7760 C.3       1 UNK         0.0864 
      6 C6        -81.2068   26.6667  -71.5733 C.3       11 UNK        -0.0881 
      7 S7        -81.0131   27.9306  -70.2674 S.3       11 UNK        -0.2682 
      8 C8        -80.0785   29.2863  -71.0644 C.3       11 UNK         0.0289 
      9 C9        -78.6790   28.9416  -71.5758 C.ar      11 UNK        -0.0687 
     10 C10       -77.9688   27.8118  -71.1504 C.ar      11 UNK        -0.0823 
     11 C11       -76.7186   27.5074  -71.6962 C.ar      11 UNK        -0.0830 
     12 C12       -76.1607   28.3539  -72.6579 C.ar      11 UNK        -0.1021 
     13 C13       -76.8338   29.5131  -73.0565 C.ar      11 UNK        -0.0753 
     14 C14       -78.0891   29.7970  -72.5119 C.ar      11 UNK        -0.0933 
     15 C15       -76.2288   30.4510  -74.0932 C.3       11 UNK         0.0166 
     16 S16       -75.2410   31.7733  -73.3216 S.3       11 UNK        -0.2615 
     17 C17       -73.7140   30.8884  -72.8490 C.3       11 UNK        -0.0865 
     18 CA        -72.4230   31.5419  -73.4155 C.3       10 UNK         0.0862 
     19 C         -71.9485   32.7212  -72.5129 C.2       10 UNK         0.5551 
     20 N         -70.9381   32.5366  -71.6710 N.am      10 UNK        -0.7319 
     21 O         -72.4955   33.8187  -72.5854 O.2       10 UNK        -0.5018 
     22 N         -71.3996   30.5179  -73.6949 N.am      10 UNK        -0.4509 
     23 C         -70.2403   30.7281  -74.3356 C.2       10 UNK         0.4899 
     24 O         -69.8958   31.8142  -74.8021 O.2       10 UNK        -0.4839 
     25 CA        -69.2990   29.5183  -74.4794 C.3       9 UNK         0.0222 
     26 CB        -68.3746   29.4085  -73.2555 C.3       9 UNK        -0.1966 
     27 N         -70.0185   28.2543  -74.6643 N.am      9 UNK        -0.4218 
     28 C         -70.6362   27.8962  -75.7987 C.2       9 UNK         0.5020 
     29 O         -70.5924   28.5640  -76.8353 O.2       9 UNK        -0.5274 
     30 CA        -71.4165   26.5634  -75.7966 C.3       8 UNK         0.0270 
     31 CB        -71.6524   25.9615  -74.3907 C.3       8 UNK        -0.1976 
     32 N         -72.6844   26.6845  -76.5243 N.am      8 UNK        -0.4313 
     33 C         -73.6954   27.5192  -76.2508 C.2       8 UNK         0.5041 
     34 O         -73.7152   28.2657  -75.2739 O.2       8 UNK        -0.5577 
     35 CA        -74.8981   27.5224  -77.2130 C.3       7 UNK         0.0284 
     36 CB        -74.6017   28.3476  -78.4794 C.3       7 UNK        -0.1958 
     37 N         -75.4133   26.1865  -77.5379 N.am      7 UNK        -0.4454 
     38 C         -74.8241   25.1818  -78.2036 C.2       7 UNK         0.5089 
     39 O         -73.7246   25.2690  -78.7545 O.2       7 UNK        -0.5125 
     40 CA        -75.5783   23.8370  -78.1726 C.3       6 UNK         0.0408 
     41 CB        -74.7483   22.6575  -78.7201 C.3       6 UNK        -0.1791 
     42 N         -76.0911   23.5502  -76.8266 N.am      6 UNK        -0.4762 
     43 C         -75.3778   23.4301  -75.6932 C.2       6 UNK         0.5007 
     44 O         -74.1492   23.3616  -75.6600 O.2       6 UNK        -0.5032 
     45 CA        -76.1566   23.4333  -74.3619 C.3       5 UNK         0.0783 
     46 C46       -75.9460   24.7793  -73.6232 C.3       11 UNK        -0.0857 
     47 S47       -76.6758   24.7522  -71.9535 S.3       11 UNK        -0.2512 
     48 C48       -75.9731   26.2664  -71.2303 C.3       11 UNK         0.0225 
     49 N         -77.5809   23.1479  -74.5564 N.am      5 UNK        -0.4615 
     50 C         -78.1042   21.9272  -74.7166 C.2       4 UNK         0.5053 
     51 O         -77.4446   20.8883  -74.6821 O.2       4 UNK        -0.5105 
     52 CA        -79.6204   21.8548  -74.9663 C.3       4 UNK         0.0263 
     53 CB        -80.3681   21.6134  -73.6454 C.3       4 UNK        -0.1981 
     54 N         -80.1539   23.0567  -75.6181 N.am      4 UNK        -0.4224 
     55 C         -79.9037   23.3947  -76.8919 C.2       3 UNK         0.4895 
     56 O         -79.2056   22.7244  -77.6528 O.2       3 UNK        -0.5091 
     57 CA        -80.4983   24.7190  -77.3959 C.3       3 UNK         0.0250 
     58 CB        -82.0053   24.5761  -77.6633 C.3       3 UNK        -0.1996 
     59 N         -80.2666   25.8466  -76.4916 N.am      3 UNK        -0.4254 
     60 C         -79.0724   26.3268  -76.1228 C.2       2 UNK         0.5004 
     61 O         -78.0004   25.8406  -76.4809 O.2       2 UNK        -0.5226 
     62 CA        -79.0539   27.5413  -75.1799 C.3       2 UNK         0.0269 
     63 CB        -79.2058   28.8589  -75.9637 C.3       2 UNK        -0.1926 
     64 N         -80.0036   27.4440  -74.0620 N.am      2 UNK        -0.4687 
     65 C         -81.3439   27.4664  -74.0829 C.2       1 UNK         0.5165 
     66 O         -81.9974   27.6957  -75.1038 O.2       1 UNK        -0.5079 
     67 H67       -84.3557   23.8522  -74.8739 H         1 UNK         0.0900 
     68 H68       -84.1665   23.1355  -73.2717 H         1 UNK         0.0900 
     69 H69       -85.1502   24.5865  -73.4786 H         1 UNK         0.0900 
     70 H70       -84.1058   26.4685  -72.8711 H         1 UNK         0.2959 
     71 H71       -82.6241   28.0305  -72.4963 H         1 UNK         0.1079 
     72 H72       -80.2387   26.2583  -71.8622 H         1 UNK         0.0837 
     73 H73       -81.6835   25.8270  -71.0648 H         1 UNK         0.0837 
     74 H74       -79.9828   30.0979  -70.3421 H         1 UNK         0.0685 
     75 H75       -80.6804   29.6800  -71.8847 H         1 UNK         0.0685 
     76 H76       -78.3866   27.1499  -70.4049 H         1 UNK         0.1434 
     77 H77       -75.2007   28.1108  -73.0908 H         1 UNK         0.1329 
     78 H78       -78.6177   30.6843  -72.8330 H         1 UNK         0.1335 
     79 H79       -75.6219   29.8993  -74.8096 H         1 UNK         0.0680 
     80 H80       -77.0255   30.9142  -74.6768 H         1 UNK         0.0680 
     81 H81       -73.7930   29.8681  -73.2192 H         1 UNK         0.1032 
     82 H82       -73.6750   30.7947  -71.7619 H         1 UNK         0.1032 
     83 H83       -72.6641   31.9766  -74.3877 H         1 UNK         0.0461 
     84 H84       -70.6292   33.3030  -71.0940 H         1 UNK         0.3453 
     85 H85       -70.4803   31.6417  -71.6103 H         1 UNK         0.3453 
     86 H86       -71.6043   29.5844  -73.3732 H         1 UNK         0.2984 
     87 H87       -68.6726   29.6884  -75.3579 H         1 UNK         0.0554 
     88 H88       -67.6452   28.6079  -73.3797 H         1 UNK         0.0847 
     89 H89       -68.9326   29.2154  -72.3384 H         1 UNK         0.0847 
     90 H90       -67.8142   30.3328  -73.1068 H         1 UNK         0.0847 
     91 H91       -70.0856   27.6392  -73.8663 H         1 UNK         0.3141 
     92 H92       -70.8096   25.8554  -76.3625 H         1 UNK         0.0743 
     93 H93       -70.7118   25.7067  -73.9013 H         1 UNK         0.0784 
     94 H94       -72.2304   25.0394  -74.4562 H         1 UNK         0.0784 
     95 H95       -72.1991   26.6424  -73.7371 H         1 UNK         0.0784 
     96 H96       -72.7775   26.1229  -77.3678 H         1 UNK         0.3213 
     97 H97       -75.7127   28.0213  -76.6849 H         1 UNK         0.0855 
     98 H98       -73.7873   27.9219  -79.0660 H         1 UNK         0.0814 
     99 H99       -74.3111   29.3657  -78.2169 H         1 UNK         0.0814 
    100 H100      -75.4793   28.4156  -79.1221 H         1 UNK         0.0814 
    101 H101      -76.3241   25.9796  -77.1260 H         1 UNK         0.3105 
    102 H102      -76.4521   23.9564  -78.8149 H         1 UNK         0.0547 
    103 H103      -75.3123   21.7257  -78.6828 H         1 UNK         0.0837 
    104 H104      -73.8238   22.5135  -78.1604 H         1 UNK         0.0837 
    105 H105      -74.4718   22.8280  -79.7612 H         1 UNK         0.0837 
    106 H106      -77.0975   23.6108  -76.7332 H         1 UNK         0.3020 
    107 H107      -75.7240   22.6384  -73.7494 H         1 UNK         0.1245 
    108 H108      -76.3793   25.6082  -74.1860 H         1 UNK         0.0781 
    109 H109      -74.8807   24.9990  -73.5242 H         1 UNK         0.0781 
    110 H110      -74.9099   26.3348  -71.4664 H         1 UNK         0.0836 
    111 H111      -76.0363   26.1971  -70.1433 H         1 UNK         0.0836 
    112 H112      -78.1976   23.9457  -74.5934 H         1 UNK         0.3022 
    113 H113      -79.8059   21.0027  -75.6238 H         1 UNK         0.0747 
    114 H114      -81.4407   21.5091  -73.8101 H         1 UNK         0.0793 
    115 H115      -80.0227   20.6988  -73.1616 H         1 UNK         0.0793 
    116 H116      -80.2165   22.4331  -72.9416 H         1 UNK         0.0793 
    117 H117      -80.7523   23.6567  -75.0495 H         1 UNK         0.3047 
    118 H118      -80.0073   24.9577  -78.3417 H         1 UNK         0.0822 
    119 H119      -82.4142   25.4787  -78.1177 H         1 UNK         0.0807 
    120 H120      -82.5624   24.3820  -76.7462 H         1 UNK         0.0807 
    121 H121      -82.2045   23.7504  -78.3480 H         1 UNK         0.0807 
    122 H122      -81.0853   26.3259  -76.1289 H         1 UNK         0.2946 
    123 H123      -78.0649   27.5501  -74.7206 H         1 UNK         0.1144 
    124 H124      -79.1856   29.7217  -75.2990 H         1 UNK         0.0793 
    125 H125      -80.1368   28.8961  -76.5297 H         1 UNK         0.0793 
    126 H126      -78.3899   28.9791  -76.6777 H         1 UNK         0.0793 
    127 H127      -79.5655   27.2634  -73.1690 H         1 UNK         0.2896 
@<TRIPOS>BOND
     1    1    2 1    
     2    1   67 1    
     3    1   68 1    
     4    1   69 1    
     5    2    3 2    
     6    2    4 am   BACKBONE|DICT|INTERRES
     7    4    5 1    
     8    4   70 1    
     9    5    6 1    
    10    5   65 1    
    11    5   71 1    
    12    6    7 1    
    13    6   72 1    
    14    6   73 1    
    15    7    8 1    
    16    8    9 1    
    17    8   74 1    
    18    8   75 1    
    19    9   10 ar   
    20    9   14 ar   
    21   10   11 ar   
    22   10   76 1    
    23   11   12 ar   
    24   11   48 1    
    25   12   13 ar   
    26   12   77 1    
    27   13   14 ar   
    28   13   15 1    
    29   14   78 1    
    30   15   16 1    
    31   15   79 1    
    32   15   80 1    
    33   16   17 1    
    34   17   18 1    
    35   17   81 1    
    36   17   82 1    
    37   18   19 1    
    38   18   22 1    
    39   18   83 1    
    40   19   20 am   BACKBONE|DICT|INTERRES
    41   19   21 2    
    42   20   84 1    
    43   20   85 1    
    44   22   23 am   BACKBONE|DICT|INTERRES
    45   22   86 1    
    46   23   24 2    
    47   23   25 1    
    48   25   26 1    
    49   25   27 1    
    50   25   87 1    
    51   26   88 1    
    52   26   89 1    
    53   26   90 1    
    54   27   28 am   BACKBONE|DICT|INTERRES
    55   27   91 1    
    56   28   29 2    
    57   28   30 1    
    58   30   31 1    
    59   30   32 1    
    60   30   92 1    
    61   31   93 1    
    62   31   94 1    
    63   31   95 1    
    64   32   33 am   BACKBONE|DICT|INTERRES
    65   32   96 1    
    66   33   34 2    
    67   33   35 1    
    68   35   36 1    
    69   35   37 1    
    70   35   97 1    
    71   36   98 1    
    72   36   99 1    
    73   36  100 1    
    74   37   38 am   BACKBONE|DICT|INTERRES
    75   37  101 1    
    76   38   39 2    
    77   38   40 1    
    78   40   41 1    
    79   40   42 1    
    80   40  102 1    
    81   41  103 1    
    82   41  104 1    
    83   41  105 1    
    84   42   43 am   BACKBONE|DICT|INTERRES
    85   42  106 1    
    86   43   44 2    
    87   43   45 1    
    88   45   46 1    
    89   45   49 1    
    90   45  107 1    
    91   46   47 1    
    92   46  108 1    
    93   46  109 1    
    94   47   48 1    
    95   48  110 1    
    96   48  111 1    
    97   49   50 am   BACKBONE|DICT|INTERRES
    98   49  112 1    
    99   50   51 2    
   100   50   52 1    
   101   52   53 1    
   102   52   54 1    
   103   52  113 1    
   104   53  114 1    
   105   53  115 1    
   106   53  116 1    
   107   54   55 am   BACKBONE|DICT|INTERRES
   108   54  117 1    
   109   55   56 2    
   110   55   57 1    
   111   57   58 1    
   112   57   59 1    
   113   57  118 1    
   114   58  119 1    
   115   58  120 1    
   116   58  121 1    
   117   59   60 am   BACKBONE|DICT|INTERRES
   118   59  122 1    
   119   60   61 2    
   120   60   62 1    
   121   62   63 1    
   122   62   64 1    
   123   62  123 1    
   124   63  124 1    
   125   63  125 1    
   126   63  126 1    
   127   64   65 am   BACKBONE|DICT|INTERRES
   128   64  127 1    
   129   65   66 2    
@<TRIPOS>SUBSTRUCTURE
     1 UNK         1 GROUP             0       ****    0 ROOT    
