@<TRIPOS>MOLECULE
3R135
127   129    1
SMALL
USER_CHARGES


@<TRIPOS>ATOM
      1 CA        -81.3284   28.3378  -74.8037 C.3       0 UNK        -0.1998 
      2 C         -82.0085   27.6756  -73.6080 C.2       0 UNK         0.4909 
      3 O         -82.9836   28.2186  -73.0926 O.2       0 UNK        -0.5240 
      4 N         -81.5447   26.5142  -73.1321 N.am      1 UNK        -0.4739 
      5 CA        -80.4223   25.7255  -73.6429 C.3       1 UNK         0.0864 
      6 C6        -79.0428   26.1738  -73.0817 C.3       11 UNK        -0.0881 
      7 S7        -78.8618   26.0016  -71.2734 S.3       11 UNK        -0.2682 
      8 C8        -79.2993   27.6700  -70.6906 C.3       11 UNK         0.0289 
      9 C9        -78.2334   28.7027  -71.0268 C.ar      11 UNK        -0.0687 
     10 C10       -78.4472   29.6456  -72.0388 C.ar      11 UNK        -0.0823 
     11 C11       -77.4868   30.6264  -72.3042 C.ar      11 UNK        -0.0830 
     12 C12       -76.3193   30.6706  -71.5375 C.ar      11 UNK        -0.1021 
     13 C13       -76.0788   29.7145  -70.5483 C.ar      11 UNK        -0.0753 
     14 C14       -77.0420   28.7337  -70.2962 C.ar      11 UNK        -0.0933 
     15 C15       -74.7894   29.7470  -69.7412 C.3       11 UNK         0.0166 
     16 S16       -73.3859   29.0580  -70.6774 S.3       11 UNK        -0.2615 
     17 C17       -72.7853   30.5138  -71.6074 C.3       11 UNK        -0.0865 
     18 CA        -73.0986   30.4599  -73.1330 C.3       10 UNK         0.0862 
     19 C         -72.7536   31.7923  -73.8646 C.2       10 UNK         0.5551 
     20 N         -72.3205   31.7650  -75.1195 N.am      10 UNK        -0.7319 
     21 O         -72.9050   32.8721  -73.2982 O.2       10 UNK        -0.5018 
     22 N         -72.5947   29.2510  -73.8035 N.am      10 UNK        -0.4509 
     23 C         -71.3212   28.8421  -73.8799 C.2       10 UNK         0.4899 
     24 O         -70.3736   29.4389  -73.3663 O.2       10 UNK        -0.4839 
     25 CA        -71.0621   27.5653  -74.7031 C.3       9 UNK         0.0222 
     26 CB        -69.7430   26.8562  -74.3282 C.3       9 UNK        -0.1966 
     27 N         -72.1972   26.6351  -74.6927 N.am      9 UNK        -0.4218 
     28 C         -72.6891   25.9397  -73.6541 C.2       9 UNK         0.5020 
     29 O         -72.1845   25.9322  -72.5308 O.2       9 UNK        -0.5274 
     30 CA        -73.9667   25.1075  -73.8970 C.3       8 UNK         0.0270 
     31 CB        -75.1518   25.6857  -73.1041 C.3       8 UNK        -0.1976 
     32 N         -74.3456   25.0041  -75.3098 N.am      8 UNK        -0.4313 
     33 C         -73.7029   24.2660  -76.2260 C.2       8 UNK         0.5041 
     34 O         -72.7803   23.4950  -75.9615 O.2       8 UNK        -0.5577 
     35 CA        -74.1251   24.4643  -77.6917 C.3       7 UNK         0.0284 
     36 CB        -75.2846   23.5266  -78.0602 C.3       7 UNK        -0.1958 
     37 N         -74.4913   25.8548  -77.9854 N.am      7 UNK        -0.4454 
     38 C         -73.6184   26.8719  -78.0389 C.2       7 UNK         0.5089 
     39 O         -72.4076   26.7422  -77.8653 O.2       7 UNK        -0.5125 
     40 CA        -74.1939   28.2773  -78.2872 C.3       6 UNK         0.0408 
     41 CB        -74.3417   28.5400  -79.7939 C.3       6 UNK        -0.1791 
     42 N         -75.4801   28.5004  -77.6218 N.am      6 UNK        -0.4762 
     43 C         -75.6542   28.5366  -76.2913 C.2       6 UNK         0.5007 
     44 O         -74.7383   28.3927  -75.4810 O.2       6 UNK        -0.5032 
     45 CA        -77.1109   28.6750  -75.7911 C.3       5 UNK         0.0783 
     46 C46       -77.6207   30.1399  -75.8160 C.3       11 UNK        -0.0857 
     47 S47       -76.6380   31.3333  -74.8432 S.3       11 UNK        -0.2512 
     48 C48       -77.7031   31.6581  -73.4003 C.3       11 UNK         0.0225 
     49 N         -78.0201   27.8079  -76.5569 N.am      5 UNK        -0.4615 
     50 C         -77.9251   26.4759  -76.6458 C.2       4 UNK         0.5053 
     51 O         -77.0967   25.8022  -76.0270 O.2       4 UNK        -0.5105 
     52 CA        -78.8809   25.7834  -77.6235 C.3       4 UNK         0.0263 
     53 CB        -78.4066   25.9810  -79.0770 C.3       4 UNK        -0.1981 
     54 N         -78.9148   24.3637  -77.2872 N.am      4 UNK        -0.4224 
     55 C         -79.8161   23.4635  -77.7046 C.2       3 UNK         0.4895 
     56 O         -80.7392   23.7210  -78.4768 O.2       3 UNK        -0.5091 
     57 CA        -79.6977   22.0508  -77.1153 C.3       3 UNK         0.0250 
     58 CB        -78.5765   21.2423  -77.7902 C.3       3 UNK        -0.1996 
     59 N         -79.4613   22.1525  -75.6779 N.am      3 UNK        -0.4254 
     60 C         -80.0251   21.4015  -74.7259 C.2       2 UNK         0.5004 
     61 O         -80.6855   20.3846  -74.9395 O.2       2 UNK        -0.5226 
     62 CA        -79.8472   21.9174  -73.2848 C.3       2 UNK         0.0269 
     63 CB        -78.6007   21.2949  -72.6354 C.3       2 UNK        -0.1926 
     64 N         -79.7422   23.3831  -73.2330 N.am      2 UNK        -0.4687 
     65 C         -80.7529   24.2249  -73.5002 C.2       1 UNK         0.5165 
     66 O         -81.9120   23.8460  -73.6831 O.2       1 UNK        -0.5079 
     67 H67       -81.5234   27.7735  -75.7151 H         1 UNK         0.0900 
     68 H68       -80.2536   28.4188  -74.6614 H         1 UNK         0.0900 
     69 H69       -81.7148   29.3464  -74.9494 H         1 UNK         0.0900 
     70 H70       -82.0462   26.0681  -72.3759 H         1 UNK         0.2959 
     71 H71       -80.3830   25.8610  -74.7246 H         1 UNK         0.1079 
     72 H72       -78.8450   27.2072  -73.3574 H         1 UNK         0.0837 
     73 H73       -78.2401   25.6122  -73.5590 H         1 UNK         0.0837 
     74 H74       -80.2666   27.9628  -71.0994 H         1 UNK         0.0685 
     75 H75       -79.4308   27.6348  -69.6082 H         1 UNK         0.0685 
     76 H76       -79.3656   29.6244  -72.6086 H         1 UNK         0.1434 
     77 H77       -75.5884   31.4439  -71.7266 H         1 UNK         0.1329 
     78 H78       -76.8717   27.9967  -69.5233 H         1 UNK         0.1335 
     79 H79       -74.9080   29.1629  -68.8273 H         1 UNK         0.0680 
     80 H80       -74.5719   30.7653  -69.4161 H         1 UNK         0.0680 
     81 H81       -73.2114   31.4143  -71.1635 H         1 UNK         0.1032 
     82 H82       -71.7103   30.5994  -71.4447 H         1 UNK         0.1032 
     83 H83       -74.1788   30.3768  -73.2363 H         1 UNK         0.0461 
     84 H84       -72.2110   30.8865  -75.5987 H         1 UNK         0.3453 
     85 H85       -72.1092   32.6309  -75.5895 H         1 UNK         0.3453 
     86 H86       -73.3037   28.7276  -74.3113 H         1 UNK         0.2984 
     87 H87       -70.9660   27.8971  -75.7376 H         1 UNK         0.0554 
     88 H88       -69.5919   25.9572  -74.9256 H         1 UNK         0.0847 
     89 H89       -69.7200   26.5699  -73.2764 H         1 UNK         0.0847 
     90 H90       -68.8862   27.5079  -74.5033 H         1 UNK         0.0847 
     91 H91       -72.6932   26.5632  -75.5713 H         1 UNK         0.3141 
     92 H92       -73.7675   24.1013  -73.5224 H         1 UNK         0.0743 
     93 H93       -76.0191   25.0301  -73.1662 H         1 UNK         0.0784 
     94 H94       -74.9060   25.7927  -72.0465 H         1 UNK         0.0784 
     95 H95       -75.4442   26.6712  -73.4680 H         1 UNK         0.0784 
     96 H96       -75.1469   25.5533  -75.6060 H         1 UNK         0.3213 
     97 H97       -73.2692   24.2035  -78.3185 H         1 UNK         0.0855 
     98 H98       -75.0028   22.4841  -77.9062 H         1 UNK         0.0814 
     99 H99       -75.5683   23.6327  -79.1074 H         1 UNK         0.0814 
    100 H100      -76.1651   23.7165  -77.4495 H         1 UNK         0.0814 
    101 H101      -75.4717   26.0582  -78.1019 H         1 UNK         0.3105 
    102 H102      -73.4815   29.0011  -77.8851 H         1 UNK         0.0547 
    103 H103      -73.3900   28.4001  -80.3086 H         1 UNK         0.0837 
    104 H104      -75.0634   27.8654  -80.2561 H         1 UNK         0.0837 
    105 H105      -74.6643   29.5629  -79.9889 H         1 UNK         0.0837 
    106 H106      -76.2861   28.6271  -78.2163 H         1 UNK         0.3020 
    107 H107      -77.1181   28.3316  -74.7540 H         1 UNK         0.1245 
    108 H108      -78.6537   30.1733  -75.4682 H         1 UNK         0.0781 
    109 H109      -77.6495   30.5078  -76.8433 H         1 UNK         0.0781 
    110 H110      -78.7504   31.7053  -73.7020 H         1 UNK         0.0836 
    111 H111      -77.4610   32.6468  -73.0075 H         1 UNK         0.0836 
    112 H112      -78.7207   28.2802  -77.1103 H         1 UNK         0.3022 
    113 H113      -79.8802   26.2048  -77.4957 H         1 UNK         0.0747 
    114 H114      -79.1014   25.5307  -79.7860 H         1 UNK         0.0793 
    115 H115      -78.3356   27.0385  -79.3339 H         1 UNK         0.0793 
    116 H116      -77.4272   25.5339  -79.2485 H         1 UNK         0.0793 
    117 H117      -78.1633   24.0911  -76.6672 H         1 UNK         0.3047 
    118 H118      -80.6491   21.5439  -77.2932 H         1 UNK         0.0822 
    119 H119      -77.5933   21.6745  -77.6062 H         1 UNK         0.0807 
    120 H120      -78.7208   21.2003  -78.8706 H         1 UNK         0.0807 
    121 H121      -78.5606   20.2151  -77.4254 H         1 UNK         0.0807 
    122 H122      -78.9644   22.9715  -75.3651 H         1 UNK         0.2946 
    123 H123      -80.7270   21.6118  -72.7133 H         1 UNK         0.1144 
    124 H124      -78.6619   20.2056  -72.6413 H         1 UNK         0.0793 
    125 H125      -77.6862   21.5727  -73.1612 H         1 UNK         0.0793 
    126 H126      -78.4983   21.6062  -71.5956 H         1 UNK         0.0793 
    127 H127      -78.8353   23.7685  -73.0094 H         1 UNK         0.2896 
@<TRIPOS>BOND
     1    1    2 1    
     2    1   67 1    
     3    1   68 1    
     4    1   69 1    
     5    2    3 2    
     6    2    4 am   BACKBONE|DICT|INTERRES
     7    4    5 1    
     8    4   70 1    
     9    5    6 1    
    10    5   65 1    
    11    5   71 1    
    12    6    7 1    
    13    6   72 1    
    14    6   73 1    
    15    7    8 1    
    16    8    9 1    
    17    8   74 1    
    18    8   75 1    
    19    9   10 ar   
    20    9   14 ar   
    21   10   11 ar   
    22   10   76 1    
    23   11   12 ar   
    24   11   48 1    
    25   12   13 ar   
    26   12   77 1    
    27   13   14 ar   
    28   13   15 1    
    29   14   78 1    
    30   15   16 1    
    31   15   79 1    
    32   15   80 1    
    33   16   17 1    
    34   17   18 1    
    35   17   81 1    
    36   17   82 1    
    37   18   19 1    
    38   18   22 1    
    39   18   83 1    
    40   19   20 am   BACKBONE|DICT|INTERRES
    41   19   21 2    
    42   20   84 1    
    43   20   85 1    
    44   22   23 am   BACKBONE|DICT|INTERRES
    45   22   86 1    
    46   23   24 2    
    47   23   25 1    
    48   25   26 1    
    49   25   27 1    
    50   25   87 1    
    51   26   88 1    
    52   26   89 1    
    53   26   90 1    
    54   27   28 am   BACKBONE|DICT|INTERRES
    55   27   91 1    
    56   28   29 2    
    57   28   30 1    
    58   30   31 1    
    59   30   32 1    
    60   30   92 1    
    61   31   93 1    
    62   31   94 1    
    63   31   95 1    
    64   32   33 am   BACKBONE|DICT|INTERRES
    65   32   96 1    
    66   33   34 2    
    67   33   35 1    
    68   35   36 1    
    69   35   37 1    
    70   35   97 1    
    71   36   98 1    
    72   36   99 1    
    73   36  100 1    
    74   37   38 am   BACKBONE|DICT|INTERRES
    75   37  101 1    
    76   38   39 2    
    77   38   40 1    
    78   40   41 1    
    79   40   42 1    
    80   40  102 1    
    81   41  103 1    
    82   41  104 1    
    83   41  105 1    
    84   42   43 am   BACKBONE|DICT|INTERRES
    85   42  106 1    
    86   43   44 2    
    87   43   45 1    
    88   45   46 1    
    89   45   49 1    
    90   45  107 1    
    91   46   47 1    
    92   46  108 1    
    93   46  109 1    
    94   47   48 1    
    95   48  110 1    
    96   48  111 1    
    97   49   50 am   BACKBONE|DICT|INTERRES
    98   49  112 1    
    99   50   51 2    
   100   50   52 1    
   101   52   53 1    
   102   52   54 1    
   103   52  113 1    
   104   53  114 1    
   105   53  115 1    
   106   53  116 1    
   107   54   55 am   BACKBONE|DICT|INTERRES
   108   54  117 1    
   109   55   56 2    
   110   55   57 1    
   111   57   58 1    
   112   57   59 1    
   113   57  118 1    
   114   58  119 1    
   115   58  120 1    
   116   58  121 1    
   117   59   60 am   BACKBONE|DICT|INTERRES
   118   59  122 1    
   119   60   61 2    
   120   60   62 1    
   121   62   63 1    
   122   62   64 1    
   123   62  123 1    
   124   63  124 1    
   125   63  125 1    
   126   63  126 1    
   127   64   65 am   BACKBONE|DICT|INTERRES
   128   64  127 1    
   129   65   66 2    
@<TRIPOS>SUBSTRUCTURE
     1 UNK         1 GROUP             0       ****    0 ROOT    
