@<TRIPOS>MOLECULE
3R135
127   129    1
SMALL
USER_CHARGES


@<TRIPOS>ATOM
      1 CA        -85.4548   26.5083  -71.7828 C.3       0 UNK        -0.1998 
      2 C         -84.6236   27.2024  -72.8514 C.2       0 UNK         0.4909 
      3 O         -85.1711   27.6380  -73.8647 O.2       0 UNK        -0.5240 
      4 N         -83.3063   27.3116  -72.6304 N.am      1 UNK        -0.4739 
      5 CA        -82.3461   27.9189  -73.5633 C.3       1 UNK         0.0864 
      6 C6        -80.9960   28.2091  -72.8599 C.3       11 UNK        -0.0881 
      7 S7        -80.1241   29.6504  -73.5593 S.3       11 UNK        -0.2682 
      8 C8        -79.1449   30.2116  -72.1271 C.3       11 UNK         0.0289 
      9 C9        -77.8560   29.4148  -71.9755 C.ar      11 UNK        -0.0687 
     10 C10       -77.8707   28.1482  -71.3815 C.ar      11 UNK        -0.0823 
     11 C11       -76.6938   27.3981  -71.2727 C.ar      11 UNK        -0.0830 
     12 C12       -75.4923   27.9552  -71.7173 C.ar      11 UNK        -0.1021 
     13 C13       -75.4515   29.2363  -72.2745 C.ar      11 UNK        -0.0753 
     14 C14       -76.6429   29.9539  -72.4171 C.ar      11 UNK        -0.0933 
     15 C15       -74.1230   29.8453  -72.7101 C.3       11 UNK         0.0166 
     16 S16       -72.9463   29.9205  -71.3143 S.3       11 UNK        -0.2615 
     17 C17       -71.5876   31.0640  -71.7749 C.3       11 UNK        -0.0865 
     18 CA        -71.5629   31.6633  -73.2066 C.3       10 UNK         0.0862 
     19 C         -70.4917   32.7912  -73.3083 C.2       10 UNK         0.5551 
     20 N         -69.4342   32.6411  -74.0972 N.am      10 UNK        -0.7319 
     21 O         -70.6290   33.8258  -72.6600 O.2       10 UNK        -0.5018 
     22 N         -71.4305   30.6161  -74.2302 N.am      10 UNK        -0.4509 
     23 C         -71.7610   30.7577  -75.5177 C.2       10 UNK         0.4899 
     24 O         -72.2578   31.7828  -75.9846 O.2       10 UNK        -0.4839 
     25 CA        -71.5154   29.5609  -76.4522 C.3       9 UNK         0.0222 
     26 CB        -70.1320   29.6556  -77.1250 C.3       9 UNK        -0.1966 
     27 N         -71.7363   28.2393  -75.8464 N.am      9 UNK        -0.4218 
     28 C         -71.0204   27.5990  -74.9072 C.2       9 UNK         0.5020 
     29 O         -70.0465   28.0982  -74.3418 O.2       9 UNK        -0.5274 
     30 CA        -71.4697   26.1814  -74.4905 C.3       8 UNK         0.0270 
     31 CB        -71.9943   26.1961  -73.0466 C.3       8 UNK        -0.1976 
     32 N         -72.4951   25.5994  -75.3626 N.am      8 UNK        -0.4313 
     33 C         -72.2863   25.1933  -76.6251 C.2       8 UNK         0.5041 
     34 O         -71.1702   25.1413  -77.1433 O.2       8 UNK        -0.5577 
     35 CA        -73.5192   24.8216  -77.4762 C.3       7 UNK         0.0284 
     36 CB        -73.6670   23.2932  -77.5551 C.3       7 UNK        -0.1958 
     37 N         -74.7846   25.4011  -77.0108 N.am      7 UNK        -0.4454 
     38 C         -75.0340   26.7011  -76.7955 C.2       7 UNK         0.5089 
     39 O         -74.2447   27.6007  -77.0809 O.2       7 UNK        -0.5125 
     40 CA        -76.3444   27.0622  -76.0732 C.3       6 UNK         0.0408 
     41 CB        -77.3938   27.5680  -77.0727 C.3       6 UNK        -0.1791 
     42 N         -76.9211   25.9785  -75.2707 N.am      6 UNK        -0.4762 
     43 C         -76.3253   25.3521  -74.2422 C.2       6 UNK         0.5007 
     44 O         -75.1557   25.5384  -73.9032 O.2       6 UNK        -0.5032 
     45 CA        -77.1862   24.3072  -73.5091 C.3       5 UNK         0.0783 
     46 C46       -78.3560   24.9774  -72.7329 C.3       11 UNK        -0.0857 
     47 S47       -78.1599   24.9845  -70.9210 S.3       11 UNK        -0.2512 
     48 C48       -76.6655   26.0018  -70.6516 C.3       11 UNK         0.0225 
     49 N         -77.6772   23.3390  -74.4885 N.am      5 UNK        -0.4615 
     50 C         -76.9763   22.2993  -74.9581 C.2       4 UNK         0.5053 
     51 O         -75.8722   21.9680  -74.5275 O.2       4 UNK        -0.5105 
     52 CA        -77.6055   21.4953  -76.1119 C.3       4 UNK         0.0263 
     53 CB        -78.3310   20.2546  -75.5670 C.3       4 UNK        -0.1981 
     54 N         -78.5376   22.2774  -76.9308 N.am      4 UNK        -0.4224 
     55 C         -78.1869   23.3142  -77.7057 C.2       3 UNK         0.4895 
     56 O         -77.0277   23.6974  -77.8521 O.2       3 UNK        -0.5091 
     57 CA        -79.3263   24.0870  -78.3925 C.3       3 UNK         0.0250 
     58 CB        -79.6613   23.4519  -79.7513 C.3       3 UNK        -0.1996 
     59 N         -80.5496   24.1997  -77.5882 N.am      3 UNK        -0.4254 
     60 C         -80.6285   24.7345  -76.3609 C.2       2 UNK         0.5004 
     61 O         -79.6549   25.1514  -75.7274 O.2       2 UNK        -0.5226 
     62 CA        -82.0224   24.7268  -75.7121 C.3       2 UNK         0.0269 
     63 CB        -82.3168   23.3414  -75.1121 C.3       2 UNK        -0.1926 
     64 N         -82.1653   25.7297  -74.6550 N.am      2 UNK        -0.4687 
     65 C         -82.1535   27.0594  -74.8337 C.2       1 UNK         0.5165 
     66 O         -82.0434   27.6029  -75.9342 O.2       1 UNK        -0.5079 
     67 H67       -84.8463   26.1821  -70.9396 H         1 UNK         0.0900 
     68 H68       -85.9494   25.6328  -72.2027 H         1 UNK         0.0900 
     69 H69       -86.2213   27.1848  -71.4057 H         1 UNK         0.0900 
     70 H70       -82.9191   26.9421  -71.7736 H         1 UNK         0.2959 
     71 H71       -82.7809   28.8689  -73.8837 H         1 UNK         0.1079 
     72 H72       -80.3396   27.3397  -72.8807 H         1 UNK         0.0837 
     73 H73       -81.1733   28.4195  -71.8041 H         1 UNK         0.0837 
     74 H74       -78.9150   31.2695  -72.2631 H         1 UNK         0.0685 
     75 H75       -79.7362   30.1515  -71.2124 H         1 UNK         0.0685 
     76 H76       -78.8031   27.7418  -71.0170 H         1 UNK         0.1434 
     77 H77       -74.5754   27.3940  -71.6109 H         1 UNK         0.1329 
     78 H78       -76.6262   30.9397  -72.8614 H         1 UNK         0.1335 
     79 H79       -74.2892   30.8453  -73.1097 H         1 UNK         0.0680 
     80 H80       -73.7035   29.2415  -73.5153 H         1 UNK         0.0680 
     81 H81       -71.6230   31.8716  -71.0408 H         1 UNK         0.1032 
     82 H82       -70.6468   30.5449  -71.5819 H         1 UNK         0.1032 
     83 H83       -72.5143   32.1707  -73.3697 H         1 UNK         0.0461 
     84 H84       -68.7511   33.3798  -74.1562 H         1 UNK         0.3453 
     85 H85       -69.3126   31.7946  -74.6290 H         1 UNK         0.3453 
     86 H86       -70.9714   29.7537  -73.9532 H         1 UNK         0.2984 
     87 H87       -72.2629   29.6356  -77.2436 H         1 UNK         0.0554 
     88 H88       -69.9870   28.8509  -77.8458 H         1 UNK         0.0847 
     89 H89       -69.3183   29.6074  -76.4010 H         1 UNK         0.0847 
     90 H90       -70.0270   30.5972  -77.6657 H         1 UNK         0.0847 
     91 H91       -72.5635   27.7687  -76.2063 H         1 UNK         0.3141 
     92 H92       -70.5880   25.5384  -74.5279 H         1 UNK         0.0743 
     93 H93       -72.2913   25.2000  -72.7177 H         1 UNK         0.0784 
     94 H94       -71.2324   26.5549  -72.3532 H         1 UNK         0.0784 
     95 H95       -72.8571   26.8534  -72.9499 H         1 UNK         0.0784 
     96 H96       -73.4433   25.5829  -74.9951 H         1 UNK         0.3213 
     97 H97       -73.3401   25.2038  -78.4830 H         1 UNK         0.0855 
     98 H98       -73.9203   22.8629  -76.5851 H         1 UNK         0.0814 
     99 H99       -72.7400   22.8251  -77.8892 H         1 UNK         0.0814 
    100 H100      -74.4440   23.0052  -78.2632 H         1 UNK         0.0814 
    101 H101      -75.5418   24.7479  -76.8407 H         1 UNK         0.3105 
    102 H102      -76.1156   27.8764  -75.3822 H         1 UNK         0.0547 
    103 H103      -77.0270   28.4417  -77.6129 H         1 UNK         0.0837 
    104 H104      -77.6383   26.8076  -77.8130 H         1 UNK         0.0837 
    105 H105      -78.3165   27.8601  -76.5702 H         1 UNK         0.0837 
    106 H106      -77.8870   25.7317  -75.4794 H         1 UNK         0.3020 
    107 H107      -76.5384   23.7806  -72.8045 H         1 UNK         0.1245 
    108 H108      -79.2915   24.4495  -72.9263 H         1 UNK         0.0781 
    109 H109      -78.5466   25.9966  -73.0698 H         1 UNK         0.0781 
    110 H110      -75.8048   25.4443  -71.0247 H         1 UNK         0.0836 
    111 H111      -76.5130   26.1091  -69.5771 H         1 UNK         0.0836 
    112 H112      -78.5464   23.5857  -74.9457 H         1 UNK         0.3022 
    113 H113      -76.7908   21.1614  -76.7583 H         1 UNK         0.0747 
    114 H114      -78.7118   19.6298  -76.3752 H         1 UNK         0.0793 
    115 H115      -77.6550   19.6367  -74.9740 H         1 UNK         0.0793 
    116 H116      -79.1708   20.5260  -74.9259 H         1 UNK         0.0793 
    117 H117      -79.5147   22.0306  -76.8744 H         1 UNK         0.3047 
    118 H118      -78.9676   25.1004  -78.5758 H         1 UNK         0.0822 
    119 H119      -80.0675   22.4457  -79.6400 H         1 UNK         0.0807 
    120 H120      -78.7703   23.3761  -80.3766 H         1 UNK         0.0807 
    121 H121      -80.3886   24.0496  -80.3011 H         1 UNK         0.0807 
    122 H122      -81.3977   23.8632  -78.0218 H         1 UNK         0.2946 
    123 H123      -82.7627   24.9481  -76.4844 H         1 UNK         0.1144 
    124 H124      -81.6001   23.0787  -74.3325 H         1 UNK         0.0793 
    125 H125      -82.2708   22.5614  -75.8732 H         1 UNK         0.0793 
    126 H126      -83.3153   23.3022  -74.6760 H         1 UNK         0.0793 
    127 H127      -82.2629   25.3812  -73.7133 H         1 UNK         0.2896 
@<TRIPOS>BOND
     1    1    2 1    
     2    1   67 1    
     3    1   68 1    
     4    1   69 1    
     5    2    3 2    
     6    2    4 am   BACKBONE|DICT|INTERRES
     7    4    5 1    
     8    4   70 1    
     9    5    6 1    
    10    5   65 1    
    11    5   71 1    
    12    6    7 1    
    13    6   72 1    
    14    6   73 1    
    15    7    8 1    
    16    8    9 1    
    17    8   74 1    
    18    8   75 1    
    19    9   10 ar   
    20    9   14 ar   
    21   10   11 ar   
    22   10   76 1    
    23   11   12 ar   
    24   11   48 1    
    25   12   13 ar   
    26   12   77 1    
    27   13   14 ar   
    28   13   15 1    
    29   14   78 1    
    30   15   16 1    
    31   15   79 1    
    32   15   80 1    
    33   16   17 1    
    34   17   18 1    
    35   17   81 1    
    36   17   82 1    
    37   18   19 1    
    38   18   22 1    
    39   18   83 1    
    40   19   20 am   BACKBONE|DICT|INTERRES
    41   19   21 2    
    42   20   84 1    
    43   20   85 1    
    44   22   23 am   BACKBONE|DICT|INTERRES
    45   22   86 1    
    46   23   24 2    
    47   23   25 1    
    48   25   26 1    
    49   25   27 1    
    50   25   87 1    
    51   26   88 1    
    52   26   89 1    
    53   26   90 1    
    54   27   28 am   BACKBONE|DICT|INTERRES
    55   27   91 1    
    56   28   29 2    
    57   28   30 1    
    58   30   31 1    
    59   30   32 1    
    60   30   92 1    
    61   31   93 1    
    62   31   94 1    
    63   31   95 1    
    64   32   33 am   BACKBONE|DICT|INTERRES
    65   32   96 1    
    66   33   34 2    
    67   33   35 1    
    68   35   36 1    
    69   35   37 1    
    70   35   97 1    
    71   36   98 1    
    72   36   99 1    
    73   36  100 1    
    74   37   38 am   BACKBONE|DICT|INTERRES
    75   37  101 1    
    76   38   39 2    
    77   38   40 1    
    78   40   41 1    
    79   40   42 1    
    80   40  102 1    
    81   41  103 1    
    82   41  104 1    
    83   41  105 1    
    84   42   43 am   BACKBONE|DICT|INTERRES
    85   42  106 1    
    86   43   44 2    
    87   43   45 1    
    88   45   46 1    
    89   45   49 1    
    90   45  107 1    
    91   46   47 1    
    92   46  108 1    
    93   46  109 1    
    94   47   48 1    
    95   48  110 1    
    96   48  111 1    
    97   49   50 am   BACKBONE|DICT|INTERRES
    98   49  112 1    
    99   50   51 2    
   100   50   52 1    
   101   52   53 1    
   102   52   54 1    
   103   52  113 1    
   104   53  114 1    
   105   53  115 1    
   106   53  116 1    
   107   54   55 am   BACKBONE|DICT|INTERRES
   108   54  117 1    
   109   55   56 2    
   110   55   57 1    
   111   57   58 1    
   112   57   59 1    
   113   57  118 1    
   114   58  119 1    
   115   58  120 1    
   116   58  121 1    
   117   59   60 am   BACKBONE|DICT|INTERRES
   118   59  122 1    
   119   60   61 2    
   120   60   62 1    
   121   62   63 1    
   122   62   64 1    
   123   62  123 1    
   124   63  124 1    
   125   63  125 1    
   126   63  126 1    
   127   64   65 am   BACKBONE|DICT|INTERRES
   128   64  127 1    
   129   65   66 2    
@<TRIPOS>SUBSTRUCTURE
     1 UNK         1 GROUP             0       ****    0 ROOT    
