@<TRIPOS>MOLECULE
3R135
127   129    1
SMALL
USER_CHARGES


@<TRIPOS>ATOM
      1 CA        -85.4323   27.5683  -70.7477 C.3       0 UNK        -0.1998 
      2 C         -84.3156   27.9845  -71.6931 C.2       0 UNK         0.4909 
      3 O         -84.5192   28.8612  -72.5334 O.2       0 UNK        -0.5240 
      4 N         -83.1362   27.3636  -71.5616 N.am      1 UNK        -0.4739 
      5 CA        -81.9505   27.6361  -72.3857 C.3       1 UNK         0.0864 
      6 C6        -80.6662   27.0416  -71.7617 C.3       11 UNK        -0.0881 
      7 S7        -80.2751   27.7176  -70.1117 S.3       11 UNK        -0.2682 
      8 C8        -79.2891   29.2013  -70.5123 C.3       11 UNK         0.0289 
      9 C9        -78.1059   28.9022  -71.4246 C.ar      11 UNK        -0.0687 
     10 C10       -78.0552   29.4528  -72.7084 C.ar      11 UNK        -0.0823 
     11 C11       -76.9938   29.1583  -73.5682 C.ar      11 UNK        -0.0830 
     12 C12       -75.9790   28.2997  -73.1348 C.ar      11 UNK        -0.1021 
     13 C13       -76.0022   27.7614  -71.8436 C.ar      11 UNK        -0.0753 
     14 C14       -77.0702   28.0679  -70.9943 C.ar      11 UNK        -0.0933 
     15 C15       -74.8841   26.8464  -71.3507 C.3       11 UNK         0.0166 
     16 S16       -73.1979   27.4793  -71.6559 S.3       11 UNK        -0.2615 
     17 C17       -73.2633   29.1874  -70.9958 C.3       11 UNK        -0.0865 
     18 CA        -72.3691   30.1829  -71.7857 C.3       10 UNK         0.0862 
     19 C         -70.8731   30.0805  -71.3596 C.2       10 UNK         0.5551 
     20 N         -69.9405   29.7820  -72.2560 N.am      10 UNK        -0.7319 
     21 O         -70.5527   30.2924  -70.1924 O.2       10 UNK        -0.5018 
     22 N         -72.6173   30.1003  -73.2355 N.am      10 UNK        -0.4509 
     23 C         -72.3081   31.0341  -74.1414 C.2       10 UNK         0.4899 
     24 O         -71.8538   32.1420  -73.8527 O.2       10 UNK        -0.4839 
     25 CA        -72.4997   30.6334  -75.6188 C.3       9 UNK         0.0222 
     26 CB        -72.1650   31.7773  -76.5942 C.3       9 UNK        -0.1966 
     27 N         -71.6828   29.4616  -75.9556 N.am      9 UNK        -0.4218 
     28 C         -72.0262   28.1948  -75.6940 C.2       9 UNK         0.5020 
     29 O         -73.1006   27.8743  -75.1824 O.2       9 UNK        -0.5274 
     30 CA        -70.9786   27.1155  -75.9819 C.3       8 UNK         0.0270 
     31 CB        -69.9205   27.0928  -74.8590 C.3       8 UNK        -0.1976 
     32 N         -71.6748   25.8349  -76.0622 N.am      8 UNK        -0.4313 
     33 C         -71.1640   24.6675  -76.4680 C.2       8 UNK         0.5041 
     34 O         -69.9959   24.5096  -76.8260 O.2       8 UNK        -0.5577 
     35 CA        -72.1342   23.4768  -76.5032 C.3       7 UNK         0.0284 
     36 CB        -72.4612   22.9862  -75.0826 C.3       7 UNK        -0.1958 
     37 N         -73.3678   23.8168  -77.2159 N.am      7 UNK        -0.4454 
     38 C         -73.4548   23.9089  -78.5530 C.2       7 UNK         0.5089 
     39 O         -72.5260   23.6409  -79.3161 O.2       7 UNK        -0.5125 
     40 CA        -74.7944   24.3724  -79.1570 C.3       6 UNK         0.0408 
     41 CB        -75.6067   23.1632  -79.6456 C.3       6 UNK        -0.1791 
     42 N         -75.6054   25.1628  -78.2289 N.am      6 UNK        -0.4762 
     43 C         -75.2913   26.4014  -77.8149 C.2       6 UNK         0.5007 
     44 O         -74.3358   27.0378  -78.2599 O.2       6 UNK        -0.5032 
     45 CA        -76.1663   27.0377  -76.7128 C.3       5 UNK         0.0783 
     46 C46       -77.0196   28.1896  -77.2968 C.3       11 UNK        -0.0857 
     47 S47       -78.1255   28.9859  -76.0840 S.3       11 UNK        -0.2512 
     48 C48       -76.9472   29.7897  -74.9523 C.3       11 UNK         0.0225 
     49 N         -76.9729   26.0676  -75.9653 N.am      5 UNK        -0.4615 
     50 C         -76.4876   25.0789  -75.2040 C.2       4 UNK         0.5053 
     51 O         -75.2854   24.8596  -75.0556 O.2       4 UNK        -0.5105 
     52 CA        -77.5146   24.1422  -74.5444 C.3       4 UNK         0.0263 
     53 CB        -77.8526   24.6446  -73.1326 C.3       4 UNK        -0.1981 
     54 N         -78.7609   23.9592  -75.3017 N.am      4 UNK        -0.4224 
     55 C         -78.8716   23.5505  -76.5733 C.2       3 UNK         0.4895 
     56 O         -77.9034   23.3579  -77.3089 O.2       3 UNK        -0.5091 
     57 CA        -80.2861   23.3170  -77.1427 C.3       3 UNK         0.0250 
     58 CB        -80.7110   21.8495  -76.9403 C.3       3 UNK        -0.1996 
     59 N         -81.3423   24.2390  -76.6874 N.am      3 UNK        -0.4254 
     60 C         -81.8399   24.4082  -75.4543 C.2       2 UNK         0.5004 
     61 O         -81.4166   23.8270  -74.4517 O.2       2 UNK        -0.5226 
     62 CA        -83.0247   25.3789  -75.3171 C.3       2 UNK         0.0269 
     63 CB        -84.3564   24.6124  -75.3619 C.3       2 UNK        -0.1926 
     64 N         -82.9369   26.1111  -74.0539 N.am      2 UNK        -0.4687 
     65 C         -82.0902   27.1263  -73.8356 C.2       1 UNK         0.5165 
     66 O         -81.4105   27.6416  -74.7238 O.2       1 UNK        -0.5079 
     67 H67       -85.1117   26.7903  -70.0550 H         1 UNK         0.0900 
     68 H68       -86.2819   27.1886  -71.3147 H         1 UNK         0.0900 
     69 H69       -85.7675   28.4248  -70.1634 H         1 UNK         0.0900 
     70 H70       -83.0143   26.6703  -70.8367 H         1 UNK         0.2959 
     71 H71       -81.8275   28.7197  -72.4487 H         1 UNK         0.1079 
     72 H72       -80.7607   25.9582  -71.6631 H         1 UNK         0.0837 
     73 H73       -79.8144   27.1971  -72.4234 H         1 UNK         0.0837 
     74 H74       -79.9471   29.9460  -70.9628 H         1 UNK         0.0685 
     75 H75       -78.9211   29.6408  -69.5843 H         1 UNK         0.0685 
     76 H76       -78.8490   30.1042  -73.0483 H         1 UNK         0.1434 
     77 H77       -75.1566   28.0598  -73.7906 H         1 UNK         0.1329 
     78 H78       -77.1081   27.6469  -69.9989 H         1 UNK         0.1335 
     79 H79       -74.9867   26.6582  -70.2809 H         1 UNK         0.0680 
     80 H80       -74.9805   25.8792  -71.8448 H         1 UNK         0.0680 
     81 H81       -73.0020   29.1686  -69.9361 H         1 UNK         0.1032 
     82 H82       -74.2888   29.5542  -71.0258 H         1 UNK         0.1032 
     83 H83       -72.6749   31.1847  -71.4780 H         1 UNK         0.0461 
     84 H84       -70.1950   29.6245  -73.2157 H         1 UNK         0.3453 
     85 H85       -68.9768   29.7257  -71.9672 H         1 UNK         0.3453 
     86 H86       -72.9511   29.2024  -73.5704 H         1 UNK         0.2984 
     87 H87       -73.5546   30.3860  -75.7542 H         1 UNK         0.0554 
     88 H88       -72.3552   31.4858  -77.6272 H         1 UNK         0.0847 
     89 H89       -71.1210   32.0840  -76.5184 H         1 UNK         0.0847 
     90 H90       -72.7784   32.6561  -76.3902 H         1 UNK         0.0847 
     91 H91       -70.7710   29.6470  -76.3498 H         1 UNK         0.3141 
     92 H92       -70.5065   27.3219  -76.9443 H         1 UNK         0.0743 
     93 H93       -70.3735   26.8975  -73.8856 H         1 UNK         0.0784 
     94 H94       -69.1621   26.3296  -75.0318 H         1 UNK         0.0784 
     95 H95       -69.3965   28.0466  -74.7916 H         1 UNK         0.0784 
     96 H96       -72.6509   25.8930  -75.7912 H         1 UNK         0.3213 
     97 H97       -71.6425   22.6576  -77.0330 H         1 UNK         0.0855 
     98 H98       -72.9296   23.7631  -74.4774 H         1 UNK         0.0814 
     99 H99       -71.5542   22.6749  -74.5628 H         1 UNK         0.0814 
    100 H100      -73.1333   22.1283  -75.1038 H         1 UNK         0.0814 
    101 H101      -74.1674   24.0810  -76.6497 H         1 UNK         0.3105 
    102 H102      -74.5671   24.9984  -80.0225 H         1 UNK         0.0547 
    103 H103      -75.0526   22.5996  -80.3973 H         1 UNK         0.0837 
    104 H104      -75.8377   22.4766  -78.8303 H         1 UNK         0.0837 
    105 H105      -76.5480   23.4721  -80.1005 H         1 UNK         0.0837 
    106 H106      -76.4093   24.6954  -77.8196 H         1 UNK         0.3020 
    107 H107      -75.4657   27.4695  -75.9997 H         1 UNK         0.1245 
    108 H108      -77.6438   27.8206  -78.1130 H         1 UNK         0.0781 
    109 H109      -76.3786   28.9594  -77.7315 H         1 UNK         0.0781 
    110 H110      -77.2024   30.8475  -74.8748 H         1 UNK         0.0836 
    111 H111      -75.9358   29.7561  -75.3590 H         1 UNK         0.0836 
    112 H112      -77.9738   26.1841  -76.0232 H         1 UNK         0.3022 
    113 H113      -77.0484   23.1590  -74.4574 H         1 UNK         0.0747 
    114 H114      -78.5775   23.9985  -72.6371 H         1 UNK         0.0793 
    115 H115      -76.9611   24.6706  -72.5057 H         1 UNK         0.0793 
    116 H116      -78.2597   25.6553  -73.1569 H         1 UNK         0.0793 
    117 H117      -79.6318   24.0383  -74.7804 H         1 UNK         0.3047 
    118 H118      -80.2051   23.4828  -78.2184 H         1 UNK         0.0822 
    119 H119      -81.6623   21.6407  -77.4298 H         1 UNK         0.0807 
    120 H120      -80.8145   21.5964  -75.8846 H         1 UNK         0.0807 
    121 H121      -79.9726   21.1679  -77.3649 H         1 UNK         0.0807 
    122 H122      -81.7500   24.7949  -77.4272 H         1 UNK         0.2946 
    123 H123      -83.0028   26.0944  -76.1427 H         1 UNK         0.1144 
    124 H124      -85.2068   25.2892  -75.2754 H         1 UNK         0.0793 
    125 H125      -84.4279   23.8785  -74.5579 H         1 UNK         0.0793 
    126 H126      -84.4661   24.0743  -76.3045 H         1 UNK         0.0793 
    127 H127      -83.4313   25.7230  -73.2640 H         1 UNK         0.2896 
@<TRIPOS>BOND
     1    1    2 1    
     2    1   67 1    
     3    1   68 1    
     4    1   69 1    
     5    2    3 2    
     6    2    4 am   BACKBONE|DICT|INTERRES
     7    4    5 1    
     8    4   70 1    
     9    5    6 1    
    10    5   65 1    
    11    5   71 1    
    12    6    7 1    
    13    6   72 1    
    14    6   73 1    
    15    7    8 1    
    16    8    9 1    
    17    8   74 1    
    18    8   75 1    
    19    9   10 ar   
    20    9   14 ar   
    21   10   11 ar   
    22   10   76 1    
    23   11   12 ar   
    24   11   48 1    
    25   12   13 ar   
    26   12   77 1    
    27   13   14 ar   
    28   13   15 1    
    29   14   78 1    
    30   15   16 1    
    31   15   79 1    
    32   15   80 1    
    33   16   17 1    
    34   17   18 1    
    35   17   81 1    
    36   17   82 1    
    37   18   19 1    
    38   18   22 1    
    39   18   83 1    
    40   19   20 am   BACKBONE|DICT|INTERRES
    41   19   21 2    
    42   20   84 1    
    43   20   85 1    
    44   22   23 am   BACKBONE|DICT|INTERRES
    45   22   86 1    
    46   23   24 2    
    47   23   25 1    
    48   25   26 1    
    49   25   27 1    
    50   25   87 1    
    51   26   88 1    
    52   26   89 1    
    53   26   90 1    
    54   27   28 am   BACKBONE|DICT|INTERRES
    55   27   91 1    
    56   28   29 2    
    57   28   30 1    
    58   30   31 1    
    59   30   32 1    
    60   30   92 1    
    61   31   93 1    
    62   31   94 1    
    63   31   95 1    
    64   32   33 am   BACKBONE|DICT|INTERRES
    65   32   96 1    
    66   33   34 2    
    67   33   35 1    
    68   35   36 1    
    69   35   37 1    
    70   35   97 1    
    71   36   98 1    
    72   36   99 1    
    73   36  100 1    
    74   37   38 am   BACKBONE|DICT|INTERRES
    75   37  101 1    
    76   38   39 2    
    77   38   40 1    
    78   40   41 1    
    79   40   42 1    
    80   40  102 1    
    81   41  103 1    
    82   41  104 1    
    83   41  105 1    
    84   42   43 am   BACKBONE|DICT|INTERRES
    85   42  106 1    
    86   43   44 2    
    87   43   45 1    
    88   45   46 1    
    89   45   49 1    
    90   45  107 1    
    91   46   47 1    
    92   46  108 1    
    93   46  109 1    
    94   47   48 1    
    95   48  110 1    
    96   48  111 1    
    97   49   50 am   BACKBONE|DICT|INTERRES
    98   49  112 1    
    99   50   51 2    
   100   50   52 1    
   101   52   53 1    
   102   52   54 1    
   103   52  113 1    
   104   53  114 1    
   105   53  115 1    
   106   53  116 1    
   107   54   55 am   BACKBONE|DICT|INTERRES
   108   54  117 1    
   109   55   56 2    
   110   55   57 1    
   111   57   58 1    
   112   57   59 1    
   113   57  118 1    
   114   58  119 1    
   115   58  120 1    
   116   58  121 1    
   117   59   60 am   BACKBONE|DICT|INTERRES
   118   59  122 1    
   119   60   61 2    
   120   60   62 1    
   121   62   63 1    
   122   62   64 1    
   123   62  123 1    
   124   63  124 1    
   125   63  125 1    
   126   63  126 1    
   127   64   65 am   BACKBONE|DICT|INTERRES
   128   64  127 1    
   129   65   66 2    
@<TRIPOS>SUBSTRUCTURE
     1 UNK         1 GROUP             0       ****    0 ROOT    
