@<TRIPOS>MOLECULE
3R135
127   129    1
SMALL
USER_CHARGES


@<TRIPOS>ATOM
      1 CA        -83.4922   27.9371  -70.9942 C.3       0 UNK        -0.1998 
      2 C         -82.6248   27.6861  -72.2179 C.2       0 UNK         0.4909 
      3 O         -81.6450   26.9490  -72.1250 O.2       0 UNK        -0.5240 
      4 N         -82.9898   28.2842  -73.3609 N.am      1 UNK        -0.4739 
      5 CA        -82.3252   28.2538  -74.6782 C.3       1 UNK         0.0864 
      6 C6        -80.8618   28.7730  -74.6909 C.3       11 UNK        -0.0881 
      7 S7        -80.6003   30.3428  -73.7961 S.3       11 UNK        -0.2682 
      8 C8        -78.7834   30.5280  -73.9241 C.3       11 UNK         0.0289 
      9 C9        -77.9270   29.5773  -73.0788 C.ar      11 UNK        -0.0687 
     10 C10       -78.4642   28.5459  -72.2966 C.ar      11 UNK        -0.0823 
     11 C11       -77.6371   27.6732  -71.5869 C.ar      11 UNK        -0.0830 
     12 C12       -76.2546   27.8713  -71.6035 C.ar      11 UNK        -0.1021 
     13 C13       -75.6989   28.9075  -72.3580 C.ar      11 UNK        -0.0753 
     14 C14       -76.5378   29.7443  -73.1017 C.ar      11 UNK        -0.0933 
     15 C15       -74.1928   29.1159  -72.3812 C.3       11 UNK         0.0166 
     16 S16       -73.7350   30.6466  -71.5103 S.3       11 UNK        -0.2615 
     17 C17       -71.9135   30.5927  -71.5798 C.3       11 UNK        -0.0865 
     18 CA        -71.3375   31.4207  -72.7586 C.3       10 UNK         0.0862 
     19 C         -69.8269   31.6907  -72.5527 C.2       10 UNK         0.5551 
     20 N         -69.4593   32.8995  -72.1517 N.am      10 UNK        -0.7319 
     21 O         -68.9904   30.8043  -72.7152 O.2       10 UNK        -0.5018 
     22 N         -71.5290   30.7242  -74.0332 N.am      10 UNK        -0.4509 
     23 C         -72.3185   31.1003  -75.0415 C.2       10 UNK         0.4899 
     24 O         -73.0215   32.1108  -75.0221 O.2       10 UNK        -0.4839 
     25 CA        -72.3551   30.1944  -76.2887 C.3       9 UNK         0.0222 
     26 CB        -71.2981   30.6335  -77.3205 C.3       9 UNK        -0.1966 
     27 N         -72.2802   28.7474  -76.0229 N.am      9 UNK        -0.4218 
     28 C         -71.2595   28.0277  -75.5252 C.2       9 UNK         0.5020 
     29 O         -70.1825   28.5186  -75.1859 O.2       9 UNK        -0.5274 
     30 CA        -71.4648   26.5127  -75.3324 C.3       8 UNK         0.0270 
     31 CB        -71.6114   26.1807  -73.8381 C.3       8 UNK        -0.1976 
     32 N         -72.6184   25.9840  -76.0642 N.am      8 UNK        -0.4313 
     33 C         -72.6397   25.7889  -77.3923 C.2       8 UNK         0.5041 
     34 O         -71.6540   25.9446  -78.1144 O.2       8 UNK        -0.5577 
     35 CA        -73.9747   25.3738  -78.0436 C.3       7 UNK         0.0284 
     36 CB        -73.9602   23.8742  -78.3809 C.3       7 UNK        -0.1958 
     37 N         -75.1676   25.6765  -77.2460 N.am      7 UNK        -0.4454 
     38 C         -75.5367   26.8974  -76.8286 C.2       7 UNK         0.5089 
     39 O         -74.9305   27.9305  -77.1133 O.2       7 UNK        -0.5125 
     40 CA        -76.7437   26.9736  -75.8785 C.3       6 UNK         0.0408 
     41 CB        -78.0248   27.2307  -76.6819 C.3       6 UNK        -0.1791 
     42 N         -76.9109   25.7860  -75.0288 N.am      6 UNK        -0.4762 
     43 C         -75.9873   25.3370  -74.1604 C.2       6 UNK         0.5007 
     44 O         -74.8793   25.8588  -74.0287 O.2       6 UNK        -0.5032 
     45 CA        -76.2912   24.0576  -73.3613 C.3       5 UNK         0.0783 
     46 C46       -76.8499   24.3262  -71.9416 C.3       11 UNK        -0.0857 
     47 S47       -78.5211   25.0593  -71.8765 S.3       11 UNK        -0.2512 
     48 C48       -78.2519   26.5167  -70.8121 C.3       11 UNK         0.0225 
     49 N         -77.1116   23.1224  -74.1373 N.am      5 UNK        -0.4615 
     50 C         -76.6793   21.9238  -74.5548 C.2       4 UNK         0.5053 
     51 O         -75.5747   21.4575  -74.2730 O.2       4 UNK        -0.5105 
     52 CA        -77.6178   21.0862  -75.4421 C.3       4 UNK         0.0263 
     53 CB        -78.4212   20.0973  -74.5818 C.3       4 UNK        -0.1981 
     54 N         -78.5444   21.8690  -76.2601 N.am      4 UNK        -0.4224 
     55 C         -78.2043   22.7793  -77.1839 C.2       3 UNK         0.4895 
     56 O         -77.0453   23.0812  -77.4681 O.2       3 UNK        -0.5091 
     57 CA        -79.3653   23.5088  -77.8821 C.3       3 UNK         0.0250 
     58 CB        -79.7618   22.7698  -79.1701 C.3       3 UNK        -0.1996 
     59 N         -80.5571   23.7011  -77.0436 N.am      3 UNK        -0.4254 
     60 C         -80.5760   24.3145  -75.8515 C.2       2 UNK         0.5004 
     61 O         -79.5661   24.7275  -75.2749 O.2       2 UNK        -0.5226 
     62 CA        -81.9426   24.4452  -75.1647 C.3       2 UNK         0.0269 
     63 CB        -82.0538   23.4452  -74.0028 C.3       2 UNK        -0.1926 
     64 N         -82.1138   25.7991  -74.6456 N.am      2 UNK        -0.4687 
     65 C         -82.3892   26.8806  -75.3833 C.2       1 UNK         0.5165 
     66 O         -82.6737   26.8285  -76.5809 O.2       1 UNK        -0.5079 
     67 H67       -83.8964   26.9960  -70.6222 H         1 UNK         0.0900 
     68 H68       -82.8969   28.3895  -70.2017 H         1 UNK         0.0900 
     69 H69       -84.3268   28.6027  -71.2136 H         1 UNK         0.0900 
     70 H70       -83.8265   28.8509  -73.3440 H         1 UNK         0.2959 
     71 H71       -82.9087   28.9364  -75.2986 H         1 UNK         0.1079 
     72 H72       -80.1950   28.0131  -74.2842 H         1 UNK         0.0837 
     73 H73       -80.5396   28.9298  -75.7220 H         1 UNK         0.0837 
     74 H74       -78.4967   30.4224  -74.9715 H         1 UNK         0.0685 
     75 H75       -78.5369   31.5523  -73.6411 H         1 UNK         0.0685 
     76 H76       -79.5303   28.3933  -72.2393 H         1 UNK         0.1434 
     77 H77       -75.6086   27.2119  -71.0413 H         1 UNK         0.1329 
     78 H78       -76.1019   30.5371  -73.6948 H         1 UNK         0.1335 
     79 H79       -73.6817   28.2711  -71.9174 H         1 UNK         0.0680 
     80 H80       -73.8518   29.1563  -73.4156 H         1 UNK         0.0680 
     81 H81       -71.5663   29.5584  -71.6193 H         1 UNK         0.1032 
     82 H82       -71.5562   30.9892  -70.6272 H         1 UNK         0.1032 
     83 H83       -71.8469   32.3863  -72.7857 H         1 UNK         0.0461 
     84 H84       -70.1395   33.6292  -72.0036 H         1 UNK         0.3453 
     85 H85       -68.4809   33.0889  -71.9983 H         1 UNK         0.3453 
     86 H86       -70.9120   29.9310  -74.1944 H         1 UNK         0.2984 
     87 H87       -73.3343   30.3451  -76.7461 H         1 UNK         0.0554 
     88 H88       -70.2831   30.5336  -76.9349 H         1 UNK         0.0847 
     89 H89       -71.4363   31.6798  -77.5963 H         1 UNK         0.0847 
     90 H90       -71.3691   30.0452  -78.2353 H         1 UNK         0.0847 
     91 H91       -73.1299   28.2457  -76.2649 H         1 UNK         0.3141 
     92 H92       -70.5664   26.0132  -75.7013 H         1 UNK         0.0743 
     93 H93       -70.7215   26.4806  -73.2831 H         1 UNK         0.0784 
     94 H94       -72.4602   26.6979  -73.3911 H         1 UNK         0.0784 
     95 H95       -71.7477   25.1110  -73.6784 H         1 UNK         0.0784 
     96 H96       -73.4695   25.8453  -75.5269 H         1 UNK         0.3213 
     97 H97       -74.0586   25.9337  -78.9773 H         1 UNK         0.0855 
     98 H98       -73.9561   23.2583  -77.4806 H         1 UNK         0.0814 
     99 H99       -73.0764   23.6097  -78.9633 H         1 UNK         0.0814 
    100 H100      -74.8301   23.5938  -78.9748 H         1 UNK         0.0814 
    101 H101      -75.7466   24.8873  -76.9828 H         1 UNK         0.3105 
    102 H102      -76.5853   27.8215  -75.2107 H         1 UNK         0.0547 
    103 H103      -78.1717   26.4798  -77.4563 H         1 UNK         0.0837 
    104 H104      -77.9862   28.2031  -77.1743 H         1 UNK         0.0837 
    105 H105      -78.9033   27.2222  -76.0419 H         1 UNK         0.0837 
    106 H106      -77.8217   25.3327  -75.0667 H         1 UNK         0.3020 
    107 H107      -75.3060   23.6134  -73.2005 H         1 UNK         0.1245 
    108 H108      -76.1497   24.9472  -71.3824 H         1 UNK         0.0781 
    109 H109      -76.8914   23.3837  -71.3938 H         1 UNK         0.0781 
    110 H110      -77.6312   26.2476  -69.9562 H         1 UNK         0.0836 
    111 H111      -79.2145   26.8251  -70.4009 H         1 UNK         0.0836 
    112 H112      -78.0304   23.4487  -74.4134 H         1 UNK         0.3022 
    113 H113      -76.9883   20.5132  -76.1262 H         1 UNK         0.0747 
    114 H114      -79.0166   19.4244  -75.1993 H         1 UNK         0.0793 
    115 H115      -77.7578   19.4764  -73.9779 H         1 UNK         0.0793 
    116 H116      -79.0960   20.6138  -73.8977 H         1 UNK         0.0793 
    117 H117      -79.5283   21.7104  -76.1015 H         1 UNK         0.3047 
    118 H118      -79.0024   24.4975  -78.1630 H         1 UNK         0.0822 
    119 H119      -80.5051   23.3301  -79.7376 H         1 UNK         0.0807 
    120 H120      -80.1727   21.7815  -78.9600 H         1 UNK         0.0807 
    121 H121      -78.8979   22.6314  -79.8223 H         1 UNK         0.0807 
    122 H122      -81.4314   23.3813  -77.4356 H         1 UNK         0.2946 
    123 H123      -82.7375   24.2411  -75.8857 H         1 UNK         0.1144 
    124 H124      -83.0231   23.5176  -73.5093 H         1 UNK         0.0793 
    125 H125      -81.2824   23.6167  -73.2499 H         1 UNK         0.0793 
    126 H126      -81.9446   22.4189  -74.3556 H         1 UNK         0.0793 
    127 H127      -81.8385   25.9617  -73.6789 H         1 UNK         0.2896 
@<TRIPOS>BOND
     1    1    2 1    
     2    1   67 1    
     3    1   68 1    
     4    1   69 1    
     5    2    3 2    
     6    2    4 am   BACKBONE|DICT|INTERRES
     7    4    5 1    
     8    4   70 1    
     9    5    6 1    
    10    5   65 1    
    11    5   71 1    
    12    6    7 1    
    13    6   72 1    
    14    6   73 1    
    15    7    8 1    
    16    8    9 1    
    17    8   74 1    
    18    8   75 1    
    19    9   10 ar   
    20    9   14 ar   
    21   10   11 ar   
    22   10   76 1    
    23   11   12 ar   
    24   11   48 1    
    25   12   13 ar   
    26   12   77 1    
    27   13   14 ar   
    28   13   15 1    
    29   14   78 1    
    30   15   16 1    
    31   15   79 1    
    32   15   80 1    
    33   16   17 1    
    34   17   18 1    
    35   17   81 1    
    36   17   82 1    
    37   18   19 1    
    38   18   22 1    
    39   18   83 1    
    40   19   20 am   BACKBONE|DICT|INTERRES
    41   19   21 2    
    42   20   84 1    
    43   20   85 1    
    44   22   23 am   BACKBONE|DICT|INTERRES
    45   22   86 1    
    46   23   24 2    
    47   23   25 1    
    48   25   26 1    
    49   25   27 1    
    50   25   87 1    
    51   26   88 1    
    52   26   89 1    
    53   26   90 1    
    54   27   28 am   BACKBONE|DICT|INTERRES
    55   27   91 1    
    56   28   29 2    
    57   28   30 1    
    58   30   31 1    
    59   30   32 1    
    60   30   92 1    
    61   31   93 1    
    62   31   94 1    
    63   31   95 1    
    64   32   33 am   BACKBONE|DICT|INTERRES
    65   32   96 1    
    66   33   34 2    
    67   33   35 1    
    68   35   36 1    
    69   35   37 1    
    70   35   97 1    
    71   36   98 1    
    72   36   99 1    
    73   36  100 1    
    74   37   38 am   BACKBONE|DICT|INTERRES
    75   37  101 1    
    76   38   39 2    
    77   38   40 1    
    78   40   41 1    
    79   40   42 1    
    80   40  102 1    
    81   41  103 1    
    82   41  104 1    
    83   41  105 1    
    84   42   43 am   BACKBONE|DICT|INTERRES
    85   42  106 1    
    86   43   44 2    
    87   43   45 1    
    88   45   46 1    
    89   45   49 1    
    90   45  107 1    
    91   46   47 1    
    92   46  108 1    
    93   46  109 1    
    94   47   48 1    
    95   48  110 1    
    96   48  111 1    
    97   49   50 am   BACKBONE|DICT|INTERRES
    98   49  112 1    
    99   50   51 2    
   100   50   52 1    
   101   52   53 1    
   102   52   54 1    
   103   52  113 1    
   104   53  114 1    
   105   53  115 1    
   106   53  116 1    
   107   54   55 am   BACKBONE|DICT|INTERRES
   108   54  117 1    
   109   55   56 2    
   110   55   57 1    
   111   57   58 1    
   112   57   59 1    
   113   57  118 1    
   114   58  119 1    
   115   58  120 1    
   116   58  121 1    
   117   59   60 am   BACKBONE|DICT|INTERRES
   118   59  122 1    
   119   60   61 2    
   120   60   62 1    
   121   62   63 1    
   122   62   64 1    
   123   62  123 1    
   124   63  124 1    
   125   63  125 1    
   126   63  126 1    
   127   64   65 am   BACKBONE|DICT|INTERRES
   128   64  127 1    
   129   65   66 2    
@<TRIPOS>SUBSTRUCTURE
     1 UNK         1 GROUP             0       ****    0 ROOT    
