@<TRIPOS>MOLECULE
3R135
127   129    1
SMALL
USER_CHARGES


@<TRIPOS>ATOM
      1 CA        -83.1268   27.2631  -73.9560 C.3       0 UNK        -0.1998 
      2 C         -82.1187   27.5826  -75.0489 C.2       0 UNK         0.4909 
      3 O         -82.4862   27.6575  -76.2219 O.2       0 UNK        -0.5240 
      4 N         -80.8457   27.7626  -74.6765 N.am      1 UNK        -0.4739 
      5 CA        -79.7339   28.0779  -75.5791 C.3       1 UNK         0.0864 
      6 C6        -78.5535   28.7520  -74.8354 C.3       11 UNK        -0.0881 
      7 S7        -78.9934   30.3587  -74.0822 S.3       11 UNK        -0.2682 
      8 C8        -79.4261   29.9231  -72.3625 C.3       11 UNK         0.0289 
      9 C9        -78.3210   29.1495  -71.6578 C.ar      11 UNK        -0.0687 
     10 C10       -78.4587   27.7753  -71.4355 C.ar      11 UNK        -0.0823 
     11 C11       -77.4300   27.0453  -70.8350 C.ar      11 UNK        -0.0830 
     12 C12       -76.2728   27.7113  -70.4174 C.ar      11 UNK        -0.1021 
     13 C13       -76.1195   29.0821  -70.6412 C.ar      11 UNK        -0.0753 
     14 C14       -77.1503   29.7994  -71.2553 C.ar      11 UNK        -0.0933 
     15 C15       -74.8182   29.7699  -70.2631 C.3       11 UNK         0.0166 
     16 S16       -73.5682   29.4859  -71.5517 S.3       11 UNK        -0.2615 
     17 C17       -72.1271   30.3848  -70.8837 C.3       11 UNK        -0.0865 
     18 CA        -71.9037   31.7797  -71.5427 C.3       10 UNK         0.0862 
     19 C         -70.6982   32.5422  -70.9124 C.2       10 UNK         0.5551 
     20 N         -69.9345   33.3172  -71.6731 N.am      10 UNK        -0.7319 
     21 O         -70.4677   32.4572  -69.7083 O.2       10 UNK        -0.5018 
     22 N         -71.9107   31.7532  -73.0194 N.am      10 UNK        -0.4509 
     23 C         -71.0954   31.0404  -73.8064 C.2       10 UNK         0.4899 
     24 O         -70.1933   30.3060  -73.3984 O.2       10 UNK        -0.4839 
     25 CA        -71.3098   31.1957  -75.3201 C.3       9 UNK         0.0222 
     26 CB        -70.1275   31.9375  -75.9660 C.3       9 UNK        -0.1966 
     27 N         -71.4719   29.8878  -75.9558 N.am      9 UNK        -0.4218 
     28 C         -72.5861   29.1485  -75.8843 C.2       9 UNK         0.5020 
     29 O         -73.6167   29.5126  -75.3119 O.2       9 UNK        -0.5274 
     30 CA        -72.5263   27.7608  -76.5503 C.3       8 UNK         0.0270 
     31 CB        -71.9513   26.7239  -75.5716 C.3       8 UNK        -0.1976 
     32 N         -73.8471   27.3131  -77.0013 N.am      8 UNK        -0.4313 
     33 C         -74.5486   27.8899  -77.9890 C.2       8 UNK         0.5041 
     34 O         -74.0960   28.7826  -78.7097 O.2       8 UNK        -0.5577 
     35 CA        -76.0008   27.4103  -78.1931 C.3       7 UNK         0.0284 
     36 CB        -76.5533   27.7114  -79.6027 C.3       7 UNK        -0.1958 
     37 N         -76.2162   26.0051  -77.8346 N.am      7 UNK        -0.4454 
     38 C         -75.6559   24.9243  -78.3952 C.2       7 UNK         0.5089 
     39 O         -74.8809   24.9716  -79.3518 O.2       7 UNK        -0.5125 
     40 CA        -76.0284   23.5588  -77.7782 C.3       6 UNK         0.0408 
     41 CB        -74.9554   22.4846  -78.0525 C.3       6 UNK        -0.1791 
     42 N         -76.3430   23.5910  -76.3410 N.am      6 UNK        -0.4762 
     43 C         -75.5581   24.0446  -75.3489 C.2       6 UNK         0.5007 
     44 O         -74.5058   24.6538  -75.5455 O.2       6 UNK        -0.5032 
     45 CA        -75.9848   23.7535  -73.8950 C.3       5 UNK         0.0783 
     46 C46       -76.0814   25.0383  -73.0388 C.3       11 UNK        -0.0857 
     47 S47       -76.1122   24.6209  -71.2595 S.3       11 UNK        -0.2512 
     48 C48       -77.5704   25.5369  -70.6609 C.3       11 UNK         0.0225 
     49 N         -77.2123   22.9567  -73.8036 N.am      5 UNK        -0.4615 
     50 C         -77.2682   21.6222  -73.8041 C.2       4 UNK         0.5053 
     51 O         -76.2870   20.8995  -73.9777 O.2       4 UNK        -0.5105 
     52 CA        -78.6435   20.9745  -73.5586 C.3       4 UNK         0.0263 
     53 CB        -78.9988   20.9959  -72.0583 C.3       4 UNK        -0.1981 
     54 N         -79.7409   21.5106  -74.3784 N.am      4 UNK        -0.4224 
     55 C         -80.2864   22.7349  -74.3641 C.2       3 UNK         0.4895 
     56 O         -79.9164   23.6583  -73.6348 O.2       3 UNK        -0.5091 
     57 CA        -81.4408   22.9735  -75.3494 C.3       3 UNK         0.0250 
     58 CB        -82.7230   23.3768  -74.6028 C.3       3 UNK        -0.1996 
     59 N         -81.0895   24.0178  -76.3090 N.am      3 UNK        -0.4254 
     60 C         -80.1513   23.9013  -77.2594 C.2       2 UNK         0.5004 
     61 O         -79.5239   22.8659  -77.4821 O.2       2 UNK        -0.5226 
     62 CA        -79.8501   25.1597  -78.0908 C.3       2 UNK         0.0269 
     63 CB        -80.7130   25.1908  -79.3614 C.3       2 UNK        -0.1926 
     64 N         -80.0516   26.3992  -77.3351 N.am      2 UNK        -0.4687 
     65 C         -79.2873   26.7968  -76.3096 C.2       1 UNK         0.5165 
     66 O         -78.2922   26.1782  -75.9258 O.2       1 UNK        -0.5079 
     67 H67       -83.7404   28.1389  -73.7470 H         1 UNK         0.0900 
     68 H68       -82.6394   26.9571  -73.0304 H         1 UNK         0.0900 
     69 H69       -83.7861   26.4560  -74.2740 H         1 UNK         0.0900 
     70 H70       -80.5954   27.6542  -73.7061 H         1 UNK         0.2959 
     71 H71       -80.0871   28.7812  -76.3372 H         1 UNK         0.1079 
     72 H72       -78.1240   28.0819  -74.0916 H         1 UNK         0.0837 
     73 H73       -77.7423   28.9529  -75.5371 H         1 UNK         0.0837 
     74 H74       -79.6280   30.8422  -71.8105 H         1 UNK         0.0685 
     75 H75       -80.3597   29.3597  -72.3561 H         1 UNK         0.0685 
     76 H76       -79.3570   27.2662  -71.7555 H         1 UNK         0.1434 
     77 H77       -75.4687   27.1541  -69.9561 H         1 UNK         0.1329 
     78 H78       -77.0323   30.8572  -71.4468 H         1 UNK         0.1335 
     79 H79       -74.9725   30.8424  -70.1338 H         1 UNK         0.0680 
     80 H80       -74.4574   29.3848  -69.3081 H         1 UNK         0.0680 
     81 H81       -71.2460   29.7562  -71.0214 H         1 UNK         0.1032 
     82 H82       -72.2463   30.4876  -69.8036 H         1 UNK         0.1032 
     83 H83       -72.7694   32.3875  -71.2775 H         1 UNK         0.0461 
     84 H84       -69.1640   33.8155  -71.2559 H         1 UNK         0.3453 
     85 H85       -70.1201   33.4047  -72.6589 H         1 UNK         0.3453 
     86 H86       -72.6172   32.3282  -73.4554 H         1 UNK         0.2984 
     87 H87       -72.2140   31.7821  -75.4990 H         1 UNK         0.0554 
     88 H88       -70.2830   32.0780  -77.0359 H         1 UNK         0.0847 
     89 H89       -69.1879   31.4000  -75.8307 H         1 UNK         0.0847 
     90 H90       -70.0014   32.9276  -75.5261 H         1 UNK         0.0847 
     91 H91       -70.6543   29.4978  -76.4022 H         1 UNK         0.3141 
     92 H92       -71.8741   27.8189  -77.4243 H         1 UNK         0.0743 
     93 H93       -72.5750   26.6236  -74.6819 H         1 UNK         0.0784 
     94 H94       -71.8719   25.7406  -76.0360 H         1 UNK         0.0784 
     95 H95       -70.9520   27.0073  -75.2385 H         1 UNK         0.0784 
     96 H96       -74.2735   26.5605  -76.4717 H         1 UNK         0.3213 
     97 H97       -76.5945   27.9899  -77.4860 H         1 UNK         0.0855 
     98 H98       -76.5307   28.7816  -79.8114 H         1 UNK         0.0814 
     99 H99       -77.5891   27.3861  -79.7006 H         1 UNK         0.0814 
    100 H100      -75.9699   27.2179  -80.3803 H         1 UNK         0.0814 
    101 H101      -76.8389   25.8552  -77.0421 H         1 UNK         0.3105 
    102 H102      -76.9421   23.2433  -78.2824 H         1 UNK         0.0547 
    103 H103      -74.8065   22.3395  -79.1231 H         1 UNK         0.0837 
    104 H104      -73.9914   22.7611  -77.6239 H         1 UNK         0.0837 
    105 H105      -75.2436   21.5198  -77.6353 H         1 UNK         0.0837 
    106 H106      -77.2126   23.1486  -76.0758 H         1 UNK         0.3020 
    107 H107      -75.1631   23.1593  -73.4878 H         1 UNK         0.1245 
    108 H108      -76.9639   25.6191  -73.3148 H         1 UNK         0.0781 
    109 H109      -75.2221   25.6920  -73.2012 H         1 UNK         0.0781 
    110 H110      -77.7164   25.3164  -69.6028 H         1 UNK         0.0836 
    111 H111      -78.4535   25.1610  -71.1812 H         1 UNK         0.0836 
    112 H112      -78.0838   23.4641  -73.6649 H         1 UNK         0.3022 
    113 H113      -78.5477   19.9277  -73.8520 H         1 UNK         0.0747 
    114 H114      -79.9328   20.4687  -71.8643 H         1 UNK         0.0793 
    115 H115      -78.2221   20.5072  -71.4686 H         1 UNK         0.0793 
    116 H116      -79.1014   22.0119  -71.6753 H         1 UNK         0.0793 
    117 H117      -80.1020   20.8591  -75.0622 H         1 UNK         0.3047 
    118 H118      -81.6432   22.0549  -75.9046 H         1 UNK         0.0822 
    119 H119      -83.5488   23.5522  -75.2925 H         1 UNK         0.0807 
    120 H120      -82.5786   24.2817  -74.0118 H         1 UNK         0.0807 
    121 H121      -83.0359   22.5891  -73.9162 H         1 UNK         0.0807 
    122 H122      -81.5276   24.9182  -76.1848 H         1 UNK         0.2946 
    123 H123      -78.8037   25.1074  -78.3942 H         1 UNK         0.1144 
    124 H124      -80.5701   24.2848  -79.9523 H         1 UNK         0.0793 
    125 H125      -80.4499   26.0357  -79.9982 H         1 UNK         0.0793 
    126 H126      -81.7759   25.2641  -79.1274 H         1 UNK         0.0793 
    127 H127      -80.8928   26.9299  -77.5317 H         1 UNK         0.2896 
@<TRIPOS>BOND
     1    1    2 1    
     2    1   67 1    
     3    1   68 1    
     4    1   69 1    
     5    2    3 2    
     6    2    4 am   BACKBONE|DICT|INTERRES
     7    4    5 1    
     8    4   70 1    
     9    5    6 1    
    10    5   65 1    
    11    5   71 1    
    12    6    7 1    
    13    6   72 1    
    14    6   73 1    
    15    7    8 1    
    16    8    9 1    
    17    8   74 1    
    18    8   75 1    
    19    9   10 ar   
    20    9   14 ar   
    21   10   11 ar   
    22   10   76 1    
    23   11   12 ar   
    24   11   48 1    
    25   12   13 ar   
    26   12   77 1    
    27   13   14 ar   
    28   13   15 1    
    29   14   78 1    
    30   15   16 1    
    31   15   79 1    
    32   15   80 1    
    33   16   17 1    
    34   17   18 1    
    35   17   81 1    
    36   17   82 1    
    37   18   19 1    
    38   18   22 1    
    39   18   83 1    
    40   19   20 am   BACKBONE|DICT|INTERRES
    41   19   21 2    
    42   20   84 1    
    43   20   85 1    
    44   22   23 am   BACKBONE|DICT|INTERRES
    45   22   86 1    
    46   23   24 2    
    47   23   25 1    
    48   25   26 1    
    49   25   27 1    
    50   25   87 1    
    51   26   88 1    
    52   26   89 1    
    53   26   90 1    
    54   27   28 am   BACKBONE|DICT|INTERRES
    55   27   91 1    
    56   28   29 2    
    57   28   30 1    
    58   30   31 1    
    59   30   32 1    
    60   30   92 1    
    61   31   93 1    
    62   31   94 1    
    63   31   95 1    
    64   32   33 am   BACKBONE|DICT|INTERRES
    65   32   96 1    
    66   33   34 2    
    67   33   35 1    
    68   35   36 1    
    69   35   37 1    
    70   35   97 1    
    71   36   98 1    
    72   36   99 1    
    73   36  100 1    
    74   37   38 am   BACKBONE|DICT|INTERRES
    75   37  101 1    
    76   38   39 2    
    77   38   40 1    
    78   40   41 1    
    79   40   42 1    
    80   40  102 1    
    81   41  103 1    
    82   41  104 1    
    83   41  105 1    
    84   42   43 am   BACKBONE|DICT|INTERRES
    85   42  106 1    
    86   43   44 2    
    87   43   45 1    
    88   45   46 1    
    89   45   49 1    
    90   45  107 1    
    91   46   47 1    
    92   46  108 1    
    93   46  109 1    
    94   47   48 1    
    95   48  110 1    
    96   48  111 1    
    97   49   50 am   BACKBONE|DICT|INTERRES
    98   49  112 1    
    99   50   51 2    
   100   50   52 1    
   101   52   53 1    
   102   52   54 1    
   103   52  113 1    
   104   53  114 1    
   105   53  115 1    
   106   53  116 1    
   107   54   55 am   BACKBONE|DICT|INTERRES
   108   54  117 1    
   109   55   56 2    
   110   55   57 1    
   111   57   58 1    
   112   57   59 1    
   113   57  118 1    
   114   58  119 1    
   115   58  120 1    
   116   58  121 1    
   117   59   60 am   BACKBONE|DICT|INTERRES
   118   59  122 1    
   119   60   61 2    
   120   60   62 1    
   121   62   63 1    
   122   62   64 1    
   123   62  123 1    
   124   63  124 1    
   125   63  125 1    
   126   63  126 1    
   127   64   65 am   BACKBONE|DICT|INTERRES
   128   64  127 1    
   129   65   66 2    
@<TRIPOS>SUBSTRUCTURE
     1 UNK         1 GROUP             0       ****    0 ROOT    
