@<TRIPOS>MOLECULE
3R135
127   129    1
SMALL
USER_CHARGES


@<TRIPOS>ATOM
      1 CA        -83.1095   27.6561  -70.1750 C.3       0 UNK        -0.1998 
      2 C         -83.2755   27.5912  -71.6859 C.2       0 UNK         0.4909 
      3 O         -84.3535   27.2460  -72.1703 O.2       0 UNK        -0.5240 
      4 N         -82.2146   27.9235  -72.4327 N.am      1 UNK        -0.4739 
      5 CA        -82.1842   27.9060  -73.9007 C.3       1 UNK         0.0864 
      6 C6        -80.9596   28.6691  -74.4631 C.3       11 UNK        -0.0881 
      7 S7        -80.9885   30.4597  -74.1119 S.3       11 UNK        -0.2682 
      8 C8        -80.0955   30.6053  -72.5272 C.3       11 UNK         0.0289 
      9 C9        -78.7277   29.9338  -72.5334 C.ar      11 UNK        -0.0687 
     10 C10       -78.4662   28.8635  -71.6716 C.ar      11 UNK        -0.0823 
     11 C11       -77.2043   28.2619  -71.6379 C.ar      11 UNK        -0.0830 
     12 C12       -76.1952   28.7506  -72.4760 C.ar      11 UNK        -0.1021 
     13 C13       -76.4459   29.8144  -73.3479 C.ar      11 UNK        -0.0753 
     14 C14       -77.7141   30.4007  -73.3747 C.ar      11 UNK        -0.0933 
     15 C15       -75.3404   30.3382  -74.2486 C.3       11 UNK         0.0166 
     16 S16       -74.6176   31.8618  -73.5644 S.3       11 UNK        -0.2615 
     17 C17       -72.8985   31.7440  -74.1720 C.3       11 UNK        -0.0865 
     18 CA        -71.8909   31.2930  -73.0750 C.3       10 UNK         0.0862 
     19 C         -71.5638   32.4052  -72.0350 C.2       10 UNK         0.5551 
     20 N         -71.4281   32.0923  -70.7512 N.am      10 UNK        -0.7319 
     21 O         -71.4001   33.5675  -72.3981 O.2       10 UNK        -0.5018 
     22 N         -72.2836   30.0149  -72.4531 N.am      10 UNK        -0.4509 
     23 C         -71.9888   28.7702  -72.8435 C.2       10 UNK         0.4899 
     24 O         -72.4115   27.7883  -72.2322 O.2       10 UNK        -0.4839 
     25 CA        -71.0771   28.5429  -74.0600 C.3       9 UNK         0.0222 
     26 CB        -69.5922   28.5697  -73.6439 C.3       9 UNK        -0.1966 
     27 N         -71.4088   27.2458  -74.6389 N.am      9 UNK        -0.4218 
     28 C         -71.0864   26.8258  -75.8660 C.2       9 UNK         0.5020 
     29 O         -70.4630   27.5094  -76.6798 O.2       9 UNK        -0.5274 
     30 CA        -71.5184   25.4037  -76.2551 C.3       8 UNK         0.0270 
     31 CB        -71.6919   24.4532  -75.0523 C.3       8 UNK        -0.1976 
     32 N         -72.7658   25.4688  -77.0122 N.am      8 UNK        -0.4313 
     33 C         -72.8484   25.5270  -78.3485 C.2       8 UNK         0.5041 
     34 O         -71.8689   25.4828  -79.0951 O.2       8 UNK        -0.5577 
     35 CA        -74.2496   25.6212  -78.9826 C.3       7 UNK         0.0284 
     36 CB        -74.6112   24.2934  -79.6693 C.3       7 UNK        -0.1958 
     37 N         -75.3098   25.9731  -78.0344 N.am      7 UNK        -0.4454 
     38 C         -75.5188   27.2046  -77.5488 C.2       7 UNK         0.5089 
     39 O         -74.8624   28.1923  -77.8791 O.2       7 UNK        -0.5125 
     40 CA        -76.6271   27.3549  -76.4916 C.3       6 UNK         0.0408 
     41 CB        -77.9997   27.5188  -77.1600 C.3       6 UNK        -0.1791 
     42 N         -76.6821   26.2481  -75.5337 N.am      6 UNK        -0.4762 
     43 C         -75.6828   25.8809  -74.7169 C.2       6 UNK         0.5007 
     44 O         -74.5712   26.4101  -74.7123 O.2       6 UNK        -0.5032 
     45 CA        -75.9567   24.6781  -73.7976 C.3       5 UNK         0.0783 
     46 C46       -76.8309   25.0546  -72.5756 C.3       11 UNK        -0.0857 
     47 S47       -75.8357   25.8151  -71.2515 S.3       11 UNK        -0.2512 
     48 C48       -76.9446   27.1305  -70.6441 C.3       11 UNK         0.0225 
     49 N         -76.5452   23.5854  -74.5717 N.am      5 UNK        -0.4615 
     50 C         -75.8367   22.7170  -75.3060 C.2       4 UNK         0.5053 
     51 O         -74.6074   22.6982  -75.3431 O.2       4 UNK        -0.5105 
     52 CA        -76.6230   21.6967  -76.1487 C.3       4 UNK         0.0263 
     53 CB        -76.7809   20.3753  -75.3797 C.3       4 UNK        -0.1981 
     54 N         -77.9436   22.1732  -76.5667 N.am      4 UNK        -0.4224 
     55 C         -78.1514   23.1954  -77.4081 C.2       3 UNK         0.4895 
     56 O         -77.2511   23.8435  -77.9389 O.2       3 UNK        -0.5091 
     57 CA        -79.6135   23.5995  -77.6526 C.3       3 UNK         0.0250 
     58 CB        -80.2398   22.7235  -78.7492 C.3       3 UNK        -0.1996 
     59 N         -80.4542   23.5635  -76.4496 N.am      3 UNK        -0.4254 
     60 C         -80.2115   24.2495  -75.3241 C.2       2 UNK         0.5004 
     61 O         -79.1898   24.9124  -75.1248 O.2       2 UNK        -0.5226 
     62 CA        -81.2782   24.1801  -74.2209 C.3       2 UNK         0.0269 
     63 CB        -80.7840   23.3169  -73.0490 C.3       2 UNK        -0.1926 
     64 N         -81.5801   25.5268  -73.7360 N.am      2 UNK        -0.4687 
     65 C         -82.1895   26.4724  -74.4673 C.2       1 UNK         0.5165 
     66 O         -82.7170   26.2554  -75.5596 O.2       1 UNK        -0.5079 
     67 H67       -82.1120   27.9868  -69.8865 H         1 UNK         0.0900 
     68 H68       -83.8327   28.3507  -69.7483 H         1 UNK         0.0900 
     69 H69       -83.2812   26.6734  -69.7366 H         1 UNK         0.0900 
     70 H70       -81.3602   28.2114  -71.9825 H         1 UNK         0.2959 
     71 H71       -83.0912   28.3950  -74.2638 H         1 UNK         0.1079 
     72 H72       -80.9339   28.5787  -75.5511 H         1 UNK         0.0837 
     73 H73       -80.0259   28.2247  -74.1146 H         1 UNK         0.0837 
     74 H74       -80.7220   30.2096  -71.7273 H         1 UNK         0.0685 
     75 H75       -79.9632   31.6647  -72.3030 H         1 UNK         0.0685 
     76 H76       -79.2408   28.5097  -71.0057 H         1 UNK         0.1434 
     77 H77       -75.2090   28.3069  -72.4486 H         1 UNK         0.1329 
     78 H78       -77.9084   31.2310  -74.0399 H         1 UNK         0.1335 
     79 H79       -74.5722   29.5726  -74.3703 H         1 UNK         0.0680 
     80 H80       -75.7316   30.5426  -75.2462 H         1 UNK         0.0680 
     81 H81       -72.6116   32.7128  -74.5851 H         1 UNK         0.1032 
     82 H82       -72.8607   31.0589  -75.0193 H         1 UNK         0.1032 
     83 H83       -70.9309   31.1548  -73.5707 H         1 UNK         0.0461 
     84 H84       -71.2076   32.8213  -70.0907 H         1 UNK         0.3453 
     85 H85       -71.4971   31.1374  -70.4383 H         1 UNK         0.3453 
     86 H86       -72.8929   30.1242  -71.6557 H         1 UNK         0.2984 
     87 H87       -71.2706   29.3046  -74.8155 H         1 UNK         0.0554 
     88 H88       -69.3290   29.5076  -73.1546 H         1 UNK         0.0847 
     89 H89       -68.9335   28.4629  -74.5058 H         1 UNK         0.0847 
     90 H90       -69.3591   27.7655  -72.9449 H         1 UNK         0.0847 
     91 H91       -71.9910   26.6656  -74.0449 H         1 UNK         0.3141 
     92 H92       -70.7241   24.9891  -76.8795 H         1 UNK         0.0743 
     93 H93       -70.7924   24.4311  -74.4355 H         1 UNK         0.0784 
     94 H94       -72.5278   24.7330  -74.4115 H         1 UNK         0.0784 
     95 H95       -71.8722   23.4324  -75.3901 H         1 UNK         0.0784 
     96 H96       -73.6116   25.5881  -76.4673 H         1 UNK         0.3213 
     97 H97       -74.2049   26.3976  -79.7495 H         1 UNK         0.0855 
     98 H98       -74.6679   23.4732  -78.9523 H         1 UNK         0.0814 
     99 H99       -73.8656   24.0221  -80.4179 H         1 UNK         0.0814 
    100 H100      -75.5722   24.3591  -80.1798 H         1 UNK         0.0814 
    101 H101      -75.9441   25.2244  -77.7633 H         1 UNK         0.3105 
    102 H102      -76.4197   28.2613  -75.9222 H         1 UNK         0.0547 
    103 H103      -78.7829   27.6793  -76.4199 H         1 UNK         0.0837 
    104 H104      -78.2683   26.6403  -77.7467 H         1 UNK         0.0837 
    105 H105      -78.0064   28.3772  -77.8329 H         1 UNK         0.0837 
    106 H106      -77.5690   25.7526  -75.4618 H         1 UNK         0.3020 
    107 H107      -74.9889   24.3336  -73.4242 H         1 UNK         0.1245 
    108 H108      -77.2848   24.1586  -72.1493 H         1 UNK         0.0781 
    109 H109      -77.6626   25.7031  -72.8591 H         1 UNK         0.0781 
    110 H110      -76.5044   27.5623  -69.7445 H         1 UNK         0.0836 
    111 H111      -77.8836   26.6688  -70.3344 H         1 UNK         0.0836 
    112 H112      -77.5536   23.5897  -74.6536 H         1 UNK         0.3022 
    113 H113      -76.0386   21.5011  -77.0505 H         1 UNK         0.0747 
    114 H114      -77.2596   19.6125  -75.9941 H         1 UNK         0.0793 
    115 H115      -75.8091   19.9818  -75.0776 H         1 UNK         0.0793 
    116 H116      -77.3763   20.5024  -74.4746 H         1 UNK         0.0793 
    117 H117      -78.7468   21.7048  -76.1733 H         1 UNK         0.3047 
    118 H118      -79.6076   24.6313  -78.0088 H         1 UNK         0.0822 
    119 H119      -81.2376   23.0731  -79.0152 H         1 UNK         0.0807 
    120 H120      -80.3201   21.6807  -78.4399 H         1 UNK         0.0807 
    121 H121      -79.6381   22.7482  -79.6591 H         1 UNK         0.0807 
    122 H122      -81.3157   23.0411  -76.5227 H         1 UNK         0.2946 
    123 H123      -82.1943   23.7420  -74.6238 H         1 UNK         0.1144 
    124 H124      -80.5639   22.3003  -73.3776 H         1 UNK         0.0793 
    125 H125      -81.5370   23.2463  -72.2639 H         1 UNK         0.0793 
    126 H126      -79.8732   23.7202  -72.6042 H         1 UNK         0.0793 
    127 H127      -81.1628   25.7986  -72.8587 H         1 UNK         0.2896 
@<TRIPOS>BOND
     1    1    2 1    
     2    1   67 1    
     3    1   68 1    
     4    1   69 1    
     5    2    3 2    
     6    2    4 am   BACKBONE|DICT|INTERRES
     7    4    5 1    
     8    4   70 1    
     9    5    6 1    
    10    5   65 1    
    11    5   71 1    
    12    6    7 1    
    13    6   72 1    
    14    6   73 1    
    15    7    8 1    
    16    8    9 1    
    17    8   74 1    
    18    8   75 1    
    19    9   10 ar   
    20    9   14 ar   
    21   10   11 ar   
    22   10   76 1    
    23   11   12 ar   
    24   11   48 1    
    25   12   13 ar   
    26   12   77 1    
    27   13   14 ar   
    28   13   15 1    
    29   14   78 1    
    30   15   16 1    
    31   15   79 1    
    32   15   80 1    
    33   16   17 1    
    34   17   18 1    
    35   17   81 1    
    36   17   82 1    
    37   18   19 1    
    38   18   22 1    
    39   18   83 1    
    40   19   20 am   BACKBONE|DICT|INTERRES
    41   19   21 2    
    42   20   84 1    
    43   20   85 1    
    44   22   23 am   BACKBONE|DICT|INTERRES
    45   22   86 1    
    46   23   24 2    
    47   23   25 1    
    48   25   26 1    
    49   25   27 1    
    50   25   87 1    
    51   26   88 1    
    52   26   89 1    
    53   26   90 1    
    54   27   28 am   BACKBONE|DICT|INTERRES
    55   27   91 1    
    56   28   29 2    
    57   28   30 1    
    58   30   31 1    
    59   30   32 1    
    60   30   92 1    
    61   31   93 1    
    62   31   94 1    
    63   31   95 1    
    64   32   33 am   BACKBONE|DICT|INTERRES
    65   32   96 1    
    66   33   34 2    
    67   33   35 1    
    68   35   36 1    
    69   35   37 1    
    70   35   97 1    
    71   36   98 1    
    72   36   99 1    
    73   36  100 1    
    74   37   38 am   BACKBONE|DICT|INTERRES
    75   37  101 1    
    76   38   39 2    
    77   38   40 1    
    78   40   41 1    
    79   40   42 1    
    80   40  102 1    
    81   41  103 1    
    82   41  104 1    
    83   41  105 1    
    84   42   43 am   BACKBONE|DICT|INTERRES
    85   42  106 1    
    86   43   44 2    
    87   43   45 1    
    88   45   46 1    
    89   45   49 1    
    90   45  107 1    
    91   46   47 1    
    92   46  108 1    
    93   46  109 1    
    94   47   48 1    
    95   48  110 1    
    96   48  111 1    
    97   49   50 am   BACKBONE|DICT|INTERRES
    98   49  112 1    
    99   50   51 2    
   100   50   52 1    
   101   52   53 1    
   102   52   54 1    
   103   52  113 1    
   104   53  114 1    
   105   53  115 1    
   106   53  116 1    
   107   54   55 am   BACKBONE|DICT|INTERRES
   108   54  117 1    
   109   55   56 2    
   110   55   57 1    
   111   57   58 1    
   112   57   59 1    
   113   57  118 1    
   114   58  119 1    
   115   58  120 1    
   116   58  121 1    
   117   59   60 am   BACKBONE|DICT|INTERRES
   118   59  122 1    
   119   60   61 2    
   120   60   62 1    
   121   62   63 1    
   122   62   64 1    
   123   62  123 1    
   124   63  124 1    
   125   63  125 1    
   126   63  126 1    
   127   64   65 am   BACKBONE|DICT|INTERRES
   128   64  127 1    
   129   65   66 2    
@<TRIPOS>SUBSTRUCTURE
     1 UNK         1 GROUP             0       ****    0 ROOT    
