@<TRIPOS>MOLECULE
3R135
127   129    1
SMALL
USER_CHARGES


@<TRIPOS>ATOM
      1 CA        -80.8320   28.8753  -75.8413 C.3       0 UNK        -0.1998 
      2 C         -82.1657   29.3591  -75.2799 C.2       0 UNK         0.4909 
      3 O         -82.8938   30.0631  -75.9774 O.2       0 UNK        -0.5240 
      4 N         -82.5268   29.0289  -74.0328 N.am      1 UNK        -0.4739 
      5 CA        -81.8082   28.1479  -73.1014 C.3       1 UNK         0.0864 
      6 C6        -82.2907   28.3471  -71.6417 C.3       11 UNK        -0.0881 
      7 S7        -82.1351   30.0856  -71.0984 S.3       11 UNK        -0.2682 
      8 C8        -80.6423   30.0488  -70.0521 C.3       11 UNK         0.0289 
      9 C9        -79.4071   29.5367  -70.7847 C.ar      11 UNK        -0.0687 
     10 C10       -78.7045   28.4394  -70.2813 C.ar      11 UNK        -0.0823 
     11 C11       -77.5595   27.9593  -70.9235 C.ar      11 UNK        -0.0830 
     12 C12       -77.1306   28.5868  -72.1030 C.ar      11 UNK        -0.1021 
     13 C13       -77.8260   29.6839  -72.6219 C.ar      11 UNK        -0.0753 
     14 C14       -78.9533   30.1639  -71.9486 C.ar      11 UNK        -0.0933 
     15 C15       -77.3807   30.3411  -73.9210 C.3       11 UNK         0.0166 
     16 S16       -75.8787   31.3504  -73.7076 S.3       11 UNK        -0.2615 
     17 C17       -74.5865   30.2447  -74.3711 C.3       11 UNK        -0.0865 
     18 CA        -73.2583   30.3002  -73.5718 C.3       10 UNK         0.0862 
     19 C         -73.3398   29.4657  -72.2643 C.2       10 UNK         0.5551 
     20 N         -73.2108   28.1482  -72.3501 N.am      10 UNK        -0.7319 
     21 O         -73.4974   30.0147  -71.1769 O.2       10 UNK        -0.5018 
     22 N         -72.1260   29.9148  -74.4266 N.am      10 UNK        -0.4509 
     23 C         -70.8307   29.9896  -74.0993 C.2       10 UNK         0.4899 
     24 O         -70.4170   30.4844  -73.0494 O.2       10 UNK        -0.4839 
     25 CA        -69.8342   29.4033  -75.1245 C.3       9 UNK         0.0222 
     26 CB        -68.3660   29.5887  -74.6960 C.3       9 UNK        -0.1966 
     27 N         -70.0740   27.9794  -75.3927 N.am      9 UNK        -0.4218 
     28 C         -71.0886   27.4861  -76.1151 C.2       9 UNK         0.5020 
     29 O         -71.9307   28.2039  -76.6614 O.2       9 UNK        -0.5274 
     30 CA        -71.1808   25.9529  -76.2256 C.3       8 UNK         0.0270 
     31 CB        -71.1807   25.2759  -74.8410 C.3       8 UNK        -0.1976 
     32 N         -72.4088   25.5801  -76.9271 N.am      8 UNK        -0.4313 
     33 C         -72.5071   25.3410  -78.2414 C.2       8 UNK         0.5041 
     34 O         -71.5363   25.2805  -78.9985 O.2       8 UNK        -0.5577 
     35 CA        -73.9184   25.1268  -78.8249 C.3       7 UNK         0.0284 
     36 CB        -74.1624   23.6363  -79.1124 C.3       7 UNK        -0.1958 
     37 N         -74.9893   25.6315  -77.9617 N.am      7 UNK        -0.4454 
     38 C         -75.2733   26.9270  -77.7697 C.2       7 UNK         0.5089 
     39 O         -74.7407   27.8444  -78.3933 O.2       7 UNK        -0.5125 
     40 CA        -76.3194   27.2606  -76.6907 C.3       6 UNK         0.0408 
     41 CB        -77.7090   27.4183  -77.3215 C.3       6 UNK        -0.1791 
     42 N         -76.3928   26.2714  -75.6106 N.am      6 UNK        -0.4762 
     43 C         -75.4087   25.9913  -74.7430 C.2       6 UNK         0.5007 
     44 O         -74.3299   26.5839  -74.7246 O.2       6 UNK        -0.5032 
     45 CA        -75.6445   24.8033  -73.7892 C.3       5 UNK         0.0783 
     46 C46       -76.4875   25.1838  -72.5508 C.3       11 UNK        -0.0857 
     47 S47       -75.5040   26.0043  -71.2627 S.3       11 UNK        -0.2512 
     48 C48       -76.8211   26.7857  -70.2729 C.3       11 UNK         0.0225 
     49 N         -76.2597   23.6879  -74.5061 N.am      5 UNK        -0.4615 
     50 C         -75.6045   22.8339  -75.3007 C.2       4 UNK         0.5053 
     51 O         -74.3878   22.8625  -75.4799 O.2       4 UNK        -0.5105 
     52 CA        -76.4542   21.7755  -76.0270 C.3       4 UNK         0.0263 
     53 CB        -76.4847   20.4675  -75.2207 C.3       4 UNK        -0.1981 
     54 N         -77.8287   22.2188  -76.2851 N.am      4 UNK        -0.4224 
     55 C         -78.1557   23.1891  -77.1502 C.2       3 UNK         0.4895 
     56 O         -77.3362   23.7908  -77.8426 O.2       3 UNK        -0.5091 
     57 CA        -79.6396   23.5873  -77.2188 C.3       3 UNK         0.0250 
     58 CB        -80.4131   22.6343  -78.1439 C.3       3 UNK        -0.1996 
     59 N         -80.3031   23.6543  -75.9099 N.am      3 UNK        -0.4254 
     60 C         -79.9439   24.4800  -74.9175 C.2       2 UNK         0.5004 
     61 O         -78.9511   25.2100  -74.9599 O.2       2 UNK        -0.5226 
     62 CA        -80.8108   24.4760  -73.6511 C.3       2 UNK         0.0269 
     63 CB        -80.1670   23.6120  -72.5557 C.3       2 UNK        -0.1926 
     64 N         -80.9499   25.8496  -73.1631 N.am      2 UNK        -0.4687 
     65 C         -81.9393   26.6719  -73.5313 C.2       1 UNK         0.5165 
     66 O         -82.9193   26.3059  -74.1859 O.2       1 UNK        -0.5079 
     67 H67       -80.0059   29.1435  -75.1840 H         1 UNK         0.0900 
     68 H68       -80.6391   29.3330  -76.8114 H         1 UNK         0.0900 
     69 H69       -80.8396   27.7949  -75.9820 H         1 UNK         0.0900 
     70 H70       -83.4145   29.3656  -73.6896 H         1 UNK         0.2959 
     71 H71       -80.7491   28.4039  -73.1376 H         1 UNK         0.1079 
     72 H72       -81.7334   27.7059  -70.9560 H         1 UNK         0.0837 
     73 H73       -83.3383   28.0560  -71.5422 H         1 UNK         0.0837 
     74 H74       -80.4428   31.0584  -69.6908 H         1 UNK         0.0685 
     75 H75       -80.8518   29.4436  -69.1687 H         1 UNK         0.0685 
     76 H76       -79.0425   27.9624  -69.3709 H         1 UNK         0.1434 
     77 H77       -76.2493   28.2382  -72.6208 H         1 UNK         0.1329 
     78 H78       -79.4939   31.0156  -72.3386 H         1 UNK         0.1335 
     79 H79       -77.2322   29.5800  -74.6870 H         1 UNK         0.0680 
     80 H80       -78.1709   30.9900  -74.3020 H         1 UNK         0.0680 
     81 H81       -74.4163   30.5549  -75.4035 H         1 UNK         0.1032 
     82 H82       -74.9511   29.2190  -74.4318 H         1 UNK         0.1032 
     83 H83       -73.0781   31.3383  -73.2854 H         1 UNK         0.0461 
     84 H84       -73.1796   27.6934  -73.2523 H         1 UNK         0.3453 
     85 H85       -73.2776   27.5940  -71.5118 H         1 UNK         0.3453 
     86 H86       -72.3488   29.4365  -75.2962 H         1 UNK         0.2984 
     87 H87       -69.9745   29.9561  -76.0559 H         1 UNK         0.0554 
     88 H88       -67.6793   29.2292  -75.4625 H         1 UNK         0.0847 
     89 H89       -68.1441   29.0578  -73.7694 H         1 UNK         0.0847 
     90 H90       -68.1373   30.6425  -74.5303 H         1 UNK         0.0847 
     91 H91       -69.4380   27.3301  -74.9524 H         1 UNK         0.3141 
     92 H92       -70.3111   25.6011  -76.7843 H         1 UNK         0.0743 
     93 H93       -71.9333   25.7012  -74.1768 H         1 UNK         0.0784 
     94 H94       -71.3806   24.2071  -74.9243 H         1 UNK         0.0784 
     95 H95       -70.2148   25.3800  -74.3462 H         1 UNK         0.0784 
     96 H96       -73.2633   25.7060  -76.3982 H         1 UNK         0.3213 
     97 H97       -73.9633   25.6678  -79.7726 H         1 UNK         0.0855 
     98 H98       -74.1222   23.0382  -78.2019 H         1 UNK         0.0814 
     99 H99       -73.4077   23.2418  -79.7942 H         1 UNK         0.0814 
    100 H100      -75.1348   23.4748  -79.5780 H         1 UNK         0.0814 
    101 H101      -75.5657   24.9426  -77.4922 H         1 UNK         0.3105 
    102 H102      -76.0358   28.2161  -76.2491 H         1 UNK         0.0547 
    103 H103      -77.7121   28.2101  -78.0716 H         1 UNK         0.0837 
    104 H104      -78.0360   26.5007  -77.8111 H         1 UNK         0.0837 
    105 H105      -78.4499   27.6768  -76.5683 H         1 UNK         0.0837 
    106 H106      -77.2750   25.7714  -75.5144 H         1 UNK         0.3020 
    107 H107      -74.6621   24.4698  -73.4447 H         1 UNK         0.1245 
    108 H108      -76.8912   24.2826  -72.0877 H         1 UNK         0.0781 
    109 H109      -77.3488   25.7953  -72.8256 H         1 UNK         0.0781 
    110 H110      -76.3729   27.1414  -69.3443 H         1 UNK         0.0836 
    111 H111      -77.5401   26.0149  -69.9904 H         1 UNK         0.0836 
    112 H112      -77.2667   23.6312  -74.4625 H         1 UNK         0.3022 
    113 H113      -75.9765   21.5743  -76.9884 H         1 UNK         0.0747 
    114 H114      -77.0181   19.6826  -75.7573 H         1 UNK         0.0793 
    115 H115      -75.4740   20.1008  -75.0352 H         1 UNK         0.0793 
    116 H116      -76.9661   20.6001  -74.2509 H         1 UNK         0.0793 
    117 H117      -78.5652   21.7713  -75.7590 H         1 UNK         0.3047 
    118 H118      -79.6834   24.5877  -77.6547 H         1 UNK         0.0822 
    119 H119      -81.4390   22.9716  -78.2932 H         1 UNK         0.0807 
    120 H120      -80.4473   21.6194  -77.7457 H         1 UNK         0.0807 
    121 H121      -79.9461   22.5823  -79.1287 H         1 UNK         0.0807 
    122 H122      -81.1222   23.0749  -75.7912 H         1 UNK         0.2946 
    123 H123      -81.7922   24.0581  -73.8885 H         1 UNK         0.1144 
    124 H124      -80.8004   23.5661  -71.6696 H         1 UNK         0.0793 
    125 H125      -79.1975   24.0012  -72.2487 H         1 UNK         0.0793 
    126 H126      -80.0171   22.5874  -72.8986 H         1 UNK         0.0793 
    127 H127      -80.1544   26.2255  -72.6668 H         1 UNK         0.2896 
@<TRIPOS>BOND
     1    1    2 1    
     2    1   67 1    
     3    1   68 1    
     4    1   69 1    
     5    2    3 2    
     6    2    4 am   BACKBONE|DICT|INTERRES
     7    4    5 1    
     8    4   70 1    
     9    5    6 1    
    10    5   65 1    
    11    5   71 1    
    12    6    7 1    
    13    6   72 1    
    14    6   73 1    
    15    7    8 1    
    16    8    9 1    
    17    8   74 1    
    18    8   75 1    
    19    9   10 ar   
    20    9   14 ar   
    21   10   11 ar   
    22   10   76 1    
    23   11   12 ar   
    24   11   48 1    
    25   12   13 ar   
    26   12   77 1    
    27   13   14 ar   
    28   13   15 1    
    29   14   78 1    
    30   15   16 1    
    31   15   79 1    
    32   15   80 1    
    33   16   17 1    
    34   17   18 1    
    35   17   81 1    
    36   17   82 1    
    37   18   19 1    
    38   18   22 1    
    39   18   83 1    
    40   19   20 am   BACKBONE|DICT|INTERRES
    41   19   21 2    
    42   20   84 1    
    43   20   85 1    
    44   22   23 am   BACKBONE|DICT|INTERRES
    45   22   86 1    
    46   23   24 2    
    47   23   25 1    
    48   25   26 1    
    49   25   27 1    
    50   25   87 1    
    51   26   88 1    
    52   26   89 1    
    53   26   90 1    
    54   27   28 am   BACKBONE|DICT|INTERRES
    55   27   91 1    
    56   28   29 2    
    57   28   30 1    
    58   30   31 1    
    59   30   32 1    
    60   30   92 1    
    61   31   93 1    
    62   31   94 1    
    63   31   95 1    
    64   32   33 am   BACKBONE|DICT|INTERRES
    65   32   96 1    
    66   33   34 2    
    67   33   35 1    
    68   35   36 1    
    69   35   37 1    
    70   35   97 1    
    71   36   98 1    
    72   36   99 1    
    73   36  100 1    
    74   37   38 am   BACKBONE|DICT|INTERRES
    75   37  101 1    
    76   38   39 2    
    77   38   40 1    
    78   40   41 1    
    79   40   42 1    
    80   40  102 1    
    81   41  103 1    
    82   41  104 1    
    83   41  105 1    
    84   42   43 am   BACKBONE|DICT|INTERRES
    85   42  106 1    
    86   43   44 2    
    87   43   45 1    
    88   45   46 1    
    89   45   49 1    
    90   45  107 1    
    91   46   47 1    
    92   46  108 1    
    93   46  109 1    
    94   47   48 1    
    95   48  110 1    
    96   48  111 1    
    97   49   50 am   BACKBONE|DICT|INTERRES
    98   49  112 1    
    99   50   51 2    
   100   50   52 1    
   101   52   53 1    
   102   52   54 1    
   103   52  113 1    
   104   53  114 1    
   105   53  115 1    
   106   53  116 1    
   107   54   55 am   BACKBONE|DICT|INTERRES
   108   54  117 1    
   109   55   56 2    
   110   55   57 1    
   111   57   58 1    
   112   57   59 1    
   113   57  118 1    
   114   58  119 1    
   115   58  120 1    
   116   58  121 1    
   117   59   60 am   BACKBONE|DICT|INTERRES
   118   59  122 1    
   119   60   61 2    
   120   60   62 1    
   121   62   63 1    
   122   62   64 1    
   123   62  123 1    
   124   63  124 1    
   125   63  125 1    
   126   63  126 1    
   127   64   65 am   BACKBONE|DICT|INTERRES
   128   64  127 1    
   129   65   66 2    
@<TRIPOS>SUBSTRUCTURE
     1 UNK         1 GROUP             0       ****    0 ROOT    
