@<TRIPOS>MOLECULE
3R135
127   129    1
SMALL
USER_CHARGES


@<TRIPOS>ATOM
      1 CA        -84.6967   30.8406  -72.7008 C.3       0 UNK        -0.1998 
      2 C         -83.3302   30.3974  -73.2017 C.2       0 UNK         0.4909 
      3 O         -82.7324   31.0816  -74.0323 O.2       0 UNK        -0.5240 
      4 N         -82.8322   29.2586  -72.7004 N.am      1 UNK        -0.4739 
      5 CA        -81.5460   28.6626  -73.0875 C.3       1 UNK         0.0864 
      6 C6        -81.1019   27.5975  -72.0527 C.3       11 UNK        -0.0881 
      7 S7        -79.3034   27.3159  -72.0725 S.3       11 UNK        -0.2682 
      8 C8        -78.7739   28.0652  -70.5024 C.3       11 UNK         0.0289 
      9 C9        -77.2613   27.9876  -70.3755 C.ar      11 UNK        -0.0687 
     10 C10       -76.6476   26.7588  -70.1210 C.ar      11 UNK        -0.0823 
     11 C11       -75.2543   26.6505  -70.0985 C.ar      11 UNK        -0.0830 
     12 C12       -74.4727   27.7921  -70.2986 C.ar      11 UNK        -0.1021 
     13 C13       -75.0755   29.0320  -70.5300 C.ar      11 UNK        -0.0753 
     14 C14       -76.4713   29.1258  -70.5597 C.ar      11 UNK        -0.0933 
     15 C15       -74.2144   30.2619  -70.7779 C.3       11 UNK         0.0166 
     16 S16       -73.6189   30.3322  -72.4988 S.3       11 UNK        -0.2615 
     17 C17       -75.1799   30.5703  -73.4133 C.3       11 UNK        -0.0865 
     18 CA        -75.6978   29.2518  -74.0627 C.3       10 UNK         0.0862 
     19 C         -77.1798   29.3372  -74.5294 C.2       10 UNK         0.5551 
     20 N         -77.7065   28.2908  -75.1488 N.am      10 UNK        -0.7319 
     21 O         -77.8613   30.3392  -74.3219 O.2       10 UNK        -0.5018 
     22 N         -74.7899   28.7288  -75.0977 N.am      10 UNK        -0.4509 
     23 C         -74.5110   29.3168  -76.2708 C.2       10 UNK         0.4899 
     24 O         -74.9991   30.3846  -76.6449 O.2       10 UNK        -0.4839 
     25 CA        -73.5047   28.5781  -77.1722 C.3       9 UNK         0.0222 
     26 CB        -72.9885   29.4256  -78.3544 C.3       9 UNK        -0.1966 
     27 N         -72.4043   28.0018  -76.3952 N.am      9 UNK        -0.4218 
     28 C         -71.4373   28.6346  -75.7127 C.2       9 UNK         0.5020 
     29 O         -71.2493   29.8512  -75.7357 O.2       9 UNK        -0.5274 
     30 CA        -70.5247   27.7520  -74.8411 C.3       8 UNK         0.0270 
     31 CB        -71.0122   27.7599  -73.3820 C.3       8 UNK        -0.1976 
     32 N         -70.4850   26.3677  -75.3208 N.am      8 UNK        -0.4313 
     33 C         -69.5927   25.8884  -76.1983 C.2       8 UNK         0.5041 
     34 O         -68.6336   26.5327  -76.6249 O.2       8 UNK        -0.5577 
     35 CA        -69.8149   24.4481  -76.6987 C.3       7 UNK         0.0284 
     36 CB        -69.1323   23.4389  -75.7611 C.3       7 UNK        -0.1958 
     37 N         -71.2334   24.1035  -76.8389 N.am      7 UNK        -0.4454 
     38 C         -72.0625   24.6475  -77.7414 C.2       7 UNK         0.5089 
     39 O         -71.6993   25.4332  -78.6161 O.2       7 UNK        -0.5125 
     40 CA        -73.5570   24.2869  -77.6378 C.3       6 UNK         0.0408 
     41 CB        -73.9133   23.1896  -78.6530 C.3       6 UNK        -0.1791 
     42 N         -74.0162   23.8764  -76.3037 N.am      6 UNK        -0.4762 
     43 C         -73.9361   24.6081  -75.1814 C.2       6 UNK         0.5007 
     44 O         -73.3642   25.6978  -75.1203 O.2       6 UNK        -0.5032 
     45 CA        -74.6226   24.0166  -73.9325 C.3       5 UNK         0.0783 
     46 C46       -74.5188   24.9424  -72.6920 C.3       11 UNK        -0.0857 
     47 S47       -75.0820   24.0952  -71.1774 S.3       11 UNK        -0.2512 
     48 C48       -74.5962   25.2935  -69.8926 C.3       11 UNK         0.0225 
     49 N         -76.0021   23.5913  -74.2176 N.am      5 UNK        -0.4615 
     50 C         -76.9952   24.3457  -74.7107 C.2       4 UNK         0.5053 
     51 O         -76.8829   25.5302  -75.0374 O.2       4 UNK        -0.5105 
     52 CA        -78.3483   23.6418  -74.8595 C.3       4 UNK         0.0263 
     53 CB        -79.1495   23.6859  -73.5478 C.3       4 UNK        -0.1981 
     54 N         -79.1193   24.2746  -75.9278 N.am      4 UNK        -0.4224 
     55 C         -79.9137   23.6185  -76.7814 C.2       3 UNK         0.4895 
     56 O         -80.1178   22.4034  -76.7238 O.2       3 UNK        -0.5091 
     57 CA        -80.5795   24.4580  -77.8916 C.3       3 UNK         0.0250 
     58 CB        -81.5206   23.6225  -78.7869 C.3       3 UNK        -0.1996 
     59 N         -81.2837   25.6527  -77.4054 N.am      3 UNK        -0.4254 
     60 C         -82.2642   25.7092  -76.4908 C.2       2 UNK         0.5004 
     61 O         -82.6625   24.7501  -75.8264 O.2       2 UNK        -0.5226 
     62 CA        -82.9489   27.0757  -76.3148 C.3       2 UNK         0.0269 
     63 CB        -84.4593   26.9788  -76.5913 C.3       2 UNK        -0.1926 
     64 N         -82.7397   27.6121  -74.9713 N.am      2 UNK        -0.4687 
     65 C         -81.5721   28.0992  -74.5289 C.2       1 UNK         0.5165 
     66 O         -80.5599   28.1479  -75.2292 O.2       1 UNK        -0.5079 
     67 H67       -85.3976   30.9059  -73.5325 H         1 UNK         0.0900 
     68 H68       -85.1066   30.1487  -71.9654 H         1 UNK         0.0900 
     69 H69       -84.6253   31.8242  -72.2373 H         1 UNK         0.0900 
     70 H70       -83.3692   28.7449  -72.0158 H         1 UNK         0.2959 
     71 H71       -80.8091   29.4701  -73.0820 H         1 UNK         0.1079 
     72 H72       -81.6117   26.6462  -72.2186 H         1 UNK         0.0837 
     73 H73       -81.3830   27.9096  -71.0455 H         1 UNK         0.0837 
     74 H74       -79.2429   27.5419  -69.6678 H         1 UNK         0.0685 
     75 H75       -79.1146   29.1010  -70.4606 H         1 UNK         0.0685 
     76 H76       -77.2563   25.8744  -69.9899 H         1 UNK         0.1434 
     77 H77       -73.3937   27.7170  -70.2956 H         1 UNK         0.1329 
     78 H78       -76.9432   30.0780  -70.7580 H         1 UNK         0.1335 
     79 H79       -74.7649   31.1742  -70.5428 H         1 UNK         0.0680 
     80 H80       -73.3533   30.2454  -70.1082 H         1 UNK         0.0680 
     81 H81       -75.0265   31.3387  -74.1717 H         1 UNK         0.1032 
     82 H82       -75.9212   30.9869  -72.7307 H         1 UNK         0.1032 
     83 H83       -75.7084   28.4917  -73.2811 H         1 UNK         0.0461 
     84 H84       -78.6970   28.3151  -75.3697 H         1 UNK         0.3453 
     85 H85       -77.1980   27.4154  -75.2227 H         1 UNK         0.3453 
     86 H86       -74.3627   27.8349  -74.8954 H         1 UNK         0.2984 
     87 H87       -74.0463   27.7303  -77.5937 H         1 UNK         0.0554 
     88 H88       -73.8101   29.7236  -79.0067 H         1 UNK         0.0847 
     89 H89       -72.2788   28.8648  -78.9627 H         1 UNK         0.0847 
     90 H90       -72.4967   30.3386  -78.0180 H         1 UNK         0.0847 
     91 H91       -72.5059   27.0103  -76.2057 H         1 UNK         0.3141 
     92 H92       -69.5202   28.1798  -74.8667 H         1 UNK         0.0743 
     93 H93       -70.9928   28.7712  -72.9738 H         1 UNK         0.0784 
     94 H94       -72.0362   27.3942  -73.2921 H         1 UNK         0.0784 
     95 H95       -70.3770   27.1431  -72.7463 H         1 UNK         0.0784 
     96 H96       -71.2631   25.7787  -75.0496 H         1 UNK         0.3213 
     97 H97       -69.3500   24.3670  -77.6839 H         1 UNK         0.0855 
     98 H98       -69.2124   22.4220  -76.1458 H         1 UNK         0.0814 
     99 H99       -69.5658   23.4561  -74.7604 H         1 UNK         0.0814 
    100 H100      -68.0691   23.6612  -75.6587 H         1 UNK         0.0814 
    101 H101      -71.6180   23.4471  -76.1753 H         1 UNK         0.3105 
    102 H102      -74.1183   25.1849  -77.9034 H         1 UNK         0.0547 
    103 H103      -74.9874   23.0058  -78.6804 H         1 UNK         0.0837 
    104 H104      -73.4152   22.2474  -78.4211 H         1 UNK         0.0837 
    105 H105      -73.6120   23.4770  -79.6615 H         1 UNK         0.0837 
    106 H106      -74.5108   22.9967  -76.2563 H         1 UNK         0.3020 
    107 H107      -74.0609   23.1092  -73.7036 H         1 UNK         0.1245 
    108 H108      -75.1074   25.8504  -72.8375 H         1 UNK         0.0781 
    109 H109      -73.4877   25.2628  -72.5302 H         1 UNK         0.0781 
    110 H110      -74.8822   24.9026  -68.9153 H         1 UNK         0.0836 
    111 H111      -73.5087   25.3826  -69.8830 H         1 UNK         0.0836 
    112 H112      -76.2108   22.6330  -73.9754 H         1 UNK         0.3022 
    113 H113      -78.1493   22.5993  -75.1181 H         1 UNK         0.0747 
    114 H114      -80.0671   23.1027  -73.6270 H         1 UNK         0.0793 
    115 H115      -78.5737   23.2786  -72.7156 H         1 UNK         0.0793 
    116 H116      -79.4276   24.7059  -73.2866 H         1 UNK         0.0793 
    117 H117      -78.9551   25.2666  -76.0447 H         1 UNK         0.3047 
    118 H118      -79.7653   24.8175  -78.5229 H         1 UNK         0.0822 
    119 H119      -81.9310   24.2212  -79.6001 H         1 UNK         0.0807 
    120 H120      -82.3561   23.2101  -78.2198 H         1 UNK         0.0807 
    121 H121      -80.9897   22.7846  -79.2407 H         1 UNK         0.0807 
    122 H122      -81.0096   26.5186  -77.8494 H         1 UNK         0.2946 
    123 H123      -82.5251   27.7816  -77.0333 H         1 UNK         0.1144 
    124 H124      -84.9596   26.3160  -75.8840 H         1 UNK         0.0793 
    125 H125      -84.6472   26.5879  -77.5923 H         1 UNK         0.0793 
    126 H126      -84.9375   27.9566  -76.5310 H         1 UNK         0.0793 
    127 H127      -83.5268   27.5918  -74.3398 H         1 UNK         0.2896 
@<TRIPOS>BOND
     1    1    2 1    
     2    1   67 1    
     3    1   68 1    
     4    1   69 1    
     5    2    3 2    
     6    2    4 am   BACKBONE|DICT|INTERRES
     7    4    5 1    
     8    4   70 1    
     9    5    6 1    
    10    5   65 1    
    11    5   71 1    
    12    6    7 1    
    13    6   72 1    
    14    6   73 1    
    15    7    8 1    
    16    8    9 1    
    17    8   74 1    
    18    8   75 1    
    19    9   10 ar   
    20    9   14 ar   
    21   10   11 ar   
    22   10   76 1    
    23   11   12 ar   
    24   11   48 1    
    25   12   13 ar   
    26   12   77 1    
    27   13   14 ar   
    28   13   15 1    
    29   14   78 1    
    30   15   16 1    
    31   15   79 1    
    32   15   80 1    
    33   16   17 1    
    34   17   18 1    
    35   17   81 1    
    36   17   82 1    
    37   18   19 1    
    38   18   22 1    
    39   18   83 1    
    40   19   20 am   BACKBONE|DICT|INTERRES
    41   19   21 2    
    42   20   84 1    
    43   20   85 1    
    44   22   23 am   BACKBONE|DICT|INTERRES
    45   22   86 1    
    46   23   24 2    
    47   23   25 1    
    48   25   26 1    
    49   25   27 1    
    50   25   87 1    
    51   26   88 1    
    52   26   89 1    
    53   26   90 1    
    54   27   28 am   BACKBONE|DICT|INTERRES
    55   27   91 1    
    56   28   29 2    
    57   28   30 1    
    58   30   31 1    
    59   30   32 1    
    60   30   92 1    
    61   31   93 1    
    62   31   94 1    
    63   31   95 1    
    64   32   33 am   BACKBONE|DICT|INTERRES
    65   32   96 1    
    66   33   34 2    
    67   33   35 1    
    68   35   36 1    
    69   35   37 1    
    70   35   97 1    
    71   36   98 1    
    72   36   99 1    
    73   36  100 1    
    74   37   38 am   BACKBONE|DICT|INTERRES
    75   37  101 1    
    76   38   39 2    
    77   38   40 1    
    78   40   41 1    
    79   40   42 1    
    80   40  102 1    
    81   41  103 1    
    82   41  104 1    
    83   41  105 1    
    84   42   43 am   BACKBONE|DICT|INTERRES
    85   42  106 1    
    86   43   44 2    
    87   43   45 1    
    88   45   46 1    
    89   45   49 1    
    90   45  107 1    
    91   46   47 1    
    92   46  108 1    
    93   46  109 1    
    94   47   48 1    
    95   48  110 1    
    96   48  111 1    
    97   49   50 am   BACKBONE|DICT|INTERRES
    98   49  112 1    
    99   50   51 2    
   100   50   52 1    
   101   52   53 1    
   102   52   54 1    
   103   52  113 1    
   104   53  114 1    
   105   53  115 1    
   106   53  116 1    
   107   54   55 am   BACKBONE|DICT|INTERRES
   108   54  117 1    
   109   55   56 2    
   110   55   57 1    
   111   57   58 1    
   112   57   59 1    
   113   57  118 1    
   114   58  119 1    
   115   58  120 1    
   116   58  121 1    
   117   59   60 am   BACKBONE|DICT|INTERRES
   118   59  122 1    
   119   60   61 2    
   120   60   62 1    
   121   62   63 1    
   122   62   64 1    
   123   62  123 1    
   124   63  124 1    
   125   63  125 1    
   126   63  126 1    
   127   64   65 am   BACKBONE|DICT|INTERRES
   128   64  127 1    
   129   65   66 2    
@<TRIPOS>SUBSTRUCTURE
     1 UNK         1 GROUP             0       ****    0 ROOT    
