@<TRIPOS>MOLECULE
3R135
127   129    1
SMALL
USER_CHARGES


@<TRIPOS>ATOM
      1 CA        -83.9875   29.1994  -74.5372 C.3       0 UNK        -0.1998 
      2 C         -82.6675   28.5777  -74.1076 C.2       0 UNK         0.4909 
      3 O         -81.6088   29.0892  -74.4626 O.2       0 UNK        -0.5240 
      4 N         -82.7251   27.4730  -73.3542 N.am      1 UNK        -0.4739 
      5 CA        -81.5679   26.7301  -72.8323 C.3       1 UNK         0.0864 
      6 C6        -81.8328   26.3003  -71.3638 C.3       11 UNK        -0.0881 
      7 S7        -80.3302   26.1092  -70.3452 S.3       11 UNK        -0.2682 
      8 C8        -79.9914   27.8150  -69.7995 C.3       11 UNK         0.0289 
      9 C9        -78.9347   28.4796  -70.6707 C.ar      11 UNK        -0.0687 
     10 C10       -79.2952   29.4079  -71.6520 C.ar      11 UNK        -0.0823 
     11 C11       -78.3214   30.0108  -72.4560 C.ar      11 UNK        -0.0830 
     12 C12       -76.9742   29.6868  -72.2581 C.ar      11 UNK        -0.1021 
     13 C13       -76.6020   28.7550  -71.2842 C.ar      11 UNK        -0.0753 
     14 C14       -77.5858   28.1624  -70.4887 C.ar      11 UNK        -0.0933 
     15 C15       -75.1457   28.3456  -71.1294 C.3       11 UNK         0.0166 
     16 S16       -74.1139   29.6758  -70.4493 S.3       11 UNK        -0.2615 
     17 C17       -72.4757   28.8672  -70.4905 C.3       11 UNK        -0.0865 
     18 CA        -71.6207   29.2812  -71.7196 C.3       10 UNK         0.0862 
     19 C         -70.1448   28.8013  -71.5703 C.2       10 UNK         0.5551 
     20 N         -69.5781   28.0452  -72.5039 N.am      10 UNK        -0.7319 
     21 O         -69.4930   29.1319  -70.5827 O.2       10 UNK        -0.5018 
     22 N         -72.2575   28.8910  -72.9896 N.am      10 UNK        -0.4509 
     23 C         -72.0417   29.4921  -74.1659 C.2       10 UNK         0.4899 
     24 O         -71.3379   30.4945  -74.3020 O.2       10 UNK        -0.4839 
     25 CA        -72.7241   28.8555  -75.3935 C.3       9 UNK         0.0222 
     26 CB        -72.1403   29.3562  -76.7308 C.3       9 UNK        -0.1966 
     27 N         -72.7430   27.3869  -75.3695 N.am      9 UNK        -0.4218 
     28 C         -71.6977   26.5521  -75.2748 C.2       9 UNK         0.5020 
     29 O         -70.5354   26.9188  -75.0962 O.2       9 UNK        -0.5274 
     30 CA        -71.9990   25.0490  -75.4114 C.3       8 UNK         0.0270 
     31 CB        -72.4402   24.4346  -74.0735 C.3       8 UNK        -0.1976 
     32 N         -72.9776   24.7536  -76.4685 N.am      8 UNK        -0.4313 
     33 C         -72.6771   24.8252  -77.7751 C.2       8 UNK         0.5041 
     34 O         -71.5782   25.1797  -78.2047 O.2       8 UNK        -0.5577 
     35 CA        -73.7605   24.4190  -78.7800 C.3       7 UNK         0.0284 
     36 CB        -74.0182   22.9015  -78.7414 C.3       7 UNK        -0.1958 
     37 N         -75.0087   25.1515  -78.5545 N.am      7 UNK        -0.4454 
     38 C         -75.4724   26.1028  -79.3774 C.2       7 UNK         0.5089 
     39 O         -74.8694   26.5007  -80.3753 O.2       7 UNK        -0.5125 
     40 CA        -76.8558   26.7000  -79.0730 C.3       6 UNK         0.0408 
     41 CB        -77.9659   25.8230  -79.6732 C.3       6 UNK        -0.1791 
     42 N         -77.1201   26.9202  -77.6511 N.am      6 UNK        -0.4762 
     43 C         -76.5603   27.8989  -76.9251 C.2       6 UNK         0.5007 
     44 O         -75.6737   28.6408  -77.3474 O.2       6 UNK        -0.5032 
     45 CA        -77.0881   28.0874  -75.4914 C.3       5 UNK         0.0783 
     46 C46       -78.3870   28.9339  -75.4560 C.3       11 UNK        -0.0857 
     47 S47       -78.0123   30.6987  -75.1766 S.3       11 UNK        -0.2512 
     48 C48       -78.7430   31.0113  -73.5303 C.3       11 UNK         0.0225 
     49 N         -77.2549   26.7987  -74.8230 N.am      5 UNK        -0.4615 
     50 C         -76.2627   26.1762  -74.1778 C.2       4 UNK         0.5053 
     51 O         -75.1245   26.6278  -74.0867 O.2       4 UNK        -0.5105 
     52 CA        -76.5678   24.7932  -73.5847 C.3       4 UNK         0.0263 
     53 CB        -77.2379   24.9319  -72.2111 C.3       4 UNK        -0.1981 
     54 N         -77.3944   23.9828  -74.4799 N.am      4 UNK        -0.4224 
     55 C         -76.9916   23.5961  -75.7001 C.2       3 UNK         0.4895 
     56 O         -75.8701   23.8374  -76.1509 O.2       3 UNK        -0.5091 
     57 CA        -78.0068   22.8621  -76.5928 C.3       3 UNK         0.0250 
     58 CB        -77.8098   21.3425  -76.4822 C.3       3 UNK        -0.1996 
     59 N         -79.4113   23.1925  -76.3258 N.am      3 UNK        -0.4254 
     60 C         -79.9547   24.4181  -76.3721 C.2       2 UNK         0.5004 
     61 O         -79.3136   25.4398  -76.6279 O.2       2 UNK        -0.5226 
     62 CA        -81.4570   24.5447  -76.0482 C.3       2 UNK         0.0269 
     63 CB        -82.1513   23.2078  -75.6986 C.3       2 UNK        -0.1926 
     64 N         -81.7007   25.5348  -74.9916 N.am      2 UNK        -0.4687 
     65 C         -81.1700   25.5529  -73.7575 C.2       1 UNK         0.5165 
     66 O         -80.3973   24.6845  -73.3494 O.2       1 UNK        -0.5079 
     67 H67       -84.8444   28.6421  -74.1593 H         1 UNK         0.0900 
     68 H68       -84.0527   29.2271  -75.6245 H         1 UNK         0.0900 
     69 H69       -84.0572   30.2215  -74.1659 H         1 UNK         0.0900 
     70 H70       -83.6290   27.0880  -73.1157 H         1 UNK         0.2959 
     71 H71       -80.7024   27.3932  -72.8357 H         1 UNK         0.1079 
     72 H72       -82.4693   27.0318  -70.8631 H         1 UNK         0.0837 
     73 H73       -82.3954   25.3652  -71.3303 H         1 UNK         0.0837 
     74 H74       -79.6358   27.7848  -68.7685 H         1 UNK         0.0685 
     75 H75       -80.9099   28.4031  -69.7830 H         1 UNK         0.0685 
     76 H76       -80.3386   29.6538  -71.7970 H         1 UNK         0.1434 
     77 H77       -76.2134   30.1457  -72.8744 H         1 UNK         0.1329 
     78 H78       -77.3070   27.4356  -69.7379 H         1 UNK         0.1335 
     79 H79       -74.7537   28.0697  -72.1047 H         1 UNK         0.0680 
     80 H80       -75.0581   27.4605  -70.4973 H         1 UNK         0.0680 
     81 H81       -71.9679   29.1460  -69.5650 H         1 UNK         0.1032 
     82 H82       -72.5891   27.7825  -70.4480 H         1 UNK         0.1032 
     83 H83       -71.5641   30.3715  -71.7076 H         1 UNK         0.0461 
     84 H84       -68.6213   27.7549  -72.3811 H         1 UNK         0.3453 
     85 H85       -70.0755   27.7792  -73.3469 H         1 UNK         0.3453 
     86 H86       -72.8352   28.0638  -72.9722 H         1 UNK         0.2984 
     87 H87       -73.7672   29.1710  -75.3509 H         1 UNK         0.0554 
     88 H88       -72.2275   30.4398  -76.8175 H         1 UNK         0.0847 
     89 H89       -72.6712   28.9224  -77.5786 H         1 UNK         0.0847 
     90 H90       -71.0843   29.1028  -76.8299 H         1 UNK         0.0847 
     91 H91       -73.6693   26.9709  -75.3522 H         1 UNK         0.3141 
     92 H92       -71.0607   24.5621  -75.6874 H         1 UNK         0.0743 
     93 H93       -71.6744   24.5821  -73.3108 H         1 UNK         0.0784 
     94 H94       -73.3567   24.8806  -73.6959 H         1 UNK         0.0784 
     95 H95       -72.6029   23.3606  -74.1646 H         1 UNK         0.0784 
     96 H96       -73.9040   24.4436  -76.1909 H         1 UNK         0.3213 
     97 H97       -73.3688   24.6423  -79.7750 H         1 UNK         0.0855 
     98 H98       -74.3541   22.5580  -77.7638 H         1 UNK         0.0814 
     99 H99       -73.1074   22.3503  -78.9787 H         1 UNK         0.0814 
    100 H100      -74.7713   22.6105  -79.4737 H         1 UNK         0.0814 
    101 H101      -75.5431   24.8908  -77.7311 H         1 UNK         0.3105 
    102 H102      -76.9051   27.6716  -79.5697 H         1 UNK         0.0547 
    103 H103      -77.9890   24.8320  -79.2219 H         1 UNK         0.0837 
    104 H104      -78.9478   26.2757  -79.5345 H         1 UNK         0.0837 
    105 H105      -77.8198   25.6886  -80.7459 H         1 UNK         0.0837 
    106 H106      -77.8653   26.3640  -77.2338 H         1 UNK         0.3020 
    107 H107      -76.3131   28.6357  -74.9507 H         1 UNK         0.1245 
    108 H108      -79.0420   28.5882  -74.6560 H         1 UNK         0.0781 
    109 H109      -78.9784   28.8298  -76.3681 H         1 UNK         0.0781 
    110 H110      -78.4603   32.0134  -73.2059 H         1 UNK         0.0836 
    111 H111      -79.8286   31.0210  -73.6397 H         1 UNK         0.0836 
    112 H112      -78.1411   26.3271  -74.9475 H         1 UNK         0.3022 
    113 H113      -75.6222   24.2664  -73.4461 H         1 UNK         0.0747 
    114 H114      -76.5677   25.4185  -71.5018 H         1 UNK         0.0793 
    115 H115      -77.5066   23.9619  -71.7929 H         1 UNK         0.0793 
    116 H116      -78.1419   25.5380  -72.2652 H         1 UNK         0.0793 
    117 H117      -78.3442   23.7914  -74.1862 H         1 UNK         0.3047 
    118 H118      -77.7940   23.1534  -77.6220 H         1 UNK         0.0822 
    119 H119      -76.7774   21.0658  -76.7021 H         1 UNK         0.0807 
    120 H120      -78.4429   20.8065  -77.1896 H         1 UNK         0.0807 
    121 H121      -78.0388   20.9770  -75.4803 H         1 UNK         0.0807 
    122 H122      -80.0142   22.4201  -76.0821 H         1 UNK         0.2946 
    123 H123      -81.9226   24.9337  -76.9553 H         1 UNK         0.1144 
    124 H124      -82.0722   22.4912  -76.5173 H         1 UNK         0.0793 
    125 H125      -83.2156   23.3594  -75.5175 H         1 UNK         0.0793 
    126 H126      -81.7321   22.7453  -74.8040 H         1 UNK         0.0793 
    127 H127      -82.2914   26.3134  -75.2471 H         1 UNK         0.2896 
@<TRIPOS>BOND
     1    1    2 1    
     2    1   67 1    
     3    1   68 1    
     4    1   69 1    
     5    2    3 2    
     6    2    4 am   BACKBONE|DICT|INTERRES
     7    4    5 1    
     8    4   70 1    
     9    5    6 1    
    10    5   65 1    
    11    5   71 1    
    12    6    7 1    
    13    6   72 1    
    14    6   73 1    
    15    7    8 1    
    16    8    9 1    
    17    8   74 1    
    18    8   75 1    
    19    9   10 ar   
    20    9   14 ar   
    21   10   11 ar   
    22   10   76 1    
    23   11   12 ar   
    24   11   48 1    
    25   12   13 ar   
    26   12   77 1    
    27   13   14 ar   
    28   13   15 1    
    29   14   78 1    
    30   15   16 1    
    31   15   79 1    
    32   15   80 1    
    33   16   17 1    
    34   17   18 1    
    35   17   81 1    
    36   17   82 1    
    37   18   19 1    
    38   18   22 1    
    39   18   83 1    
    40   19   20 am   BACKBONE|DICT|INTERRES
    41   19   21 2    
    42   20   84 1    
    43   20   85 1    
    44   22   23 am   BACKBONE|DICT|INTERRES
    45   22   86 1    
    46   23   24 2    
    47   23   25 1    
    48   25   26 1    
    49   25   27 1    
    50   25   87 1    
    51   26   88 1    
    52   26   89 1    
    53   26   90 1    
    54   27   28 am   BACKBONE|DICT|INTERRES
    55   27   91 1    
    56   28   29 2    
    57   28   30 1    
    58   30   31 1    
    59   30   32 1    
    60   30   92 1    
    61   31   93 1    
    62   31   94 1    
    63   31   95 1    
    64   32   33 am   BACKBONE|DICT|INTERRES
    65   32   96 1    
    66   33   34 2    
    67   33   35 1    
    68   35   36 1    
    69   35   37 1    
    70   35   97 1    
    71   36   98 1    
    72   36   99 1    
    73   36  100 1    
    74   37   38 am   BACKBONE|DICT|INTERRES
    75   37  101 1    
    76   38   39 2    
    77   38   40 1    
    78   40   41 1    
    79   40   42 1    
    80   40  102 1    
    81   41  103 1    
    82   41  104 1    
    83   41  105 1    
    84   42   43 am   BACKBONE|DICT|INTERRES
    85   42  106 1    
    86   43   44 2    
    87   43   45 1    
    88   45   46 1    
    89   45   49 1    
    90   45  107 1    
    91   46   47 1    
    92   46  108 1    
    93   46  109 1    
    94   47   48 1    
    95   48  110 1    
    96   48  111 1    
    97   49   50 am   BACKBONE|DICT|INTERRES
    98   49  112 1    
    99   50   51 2    
   100   50   52 1    
   101   52   53 1    
   102   52   54 1    
   103   52  113 1    
   104   53  114 1    
   105   53  115 1    
   106   53  116 1    
   107   54   55 am   BACKBONE|DICT|INTERRES
   108   54  117 1    
   109   55   56 2    
   110   55   57 1    
   111   57   58 1    
   112   57   59 1    
   113   57  118 1    
   114   58  119 1    
   115   58  120 1    
   116   58  121 1    
   117   59   60 am   BACKBONE|DICT|INTERRES
   118   59  122 1    
   119   60   61 2    
   120   60   62 1    
   121   62   63 1    
   122   62   64 1    
   123   62  123 1    
   124   63  124 1    
   125   63  125 1    
   126   63  126 1    
   127   64   65 am   BACKBONE|DICT|INTERRES
   128   64  127 1    
   129   65   66 2    
@<TRIPOS>SUBSTRUCTURE
     1 UNK         1 GROUP             0       ****    0 ROOT    
