@<TRIPOS>MOLECULE
3R135
127   129    1
SMALL
USER_CHARGES


@<TRIPOS>ATOM
      1 CA        -78.8564   30.4133  -76.2318 C.3       0 UNK        -0.1998 
      2 C         -79.1349   29.4454  -75.0921 C.2       0 UNK         0.4909 
      3 O         -78.2110   28.7940  -74.6092 O.2       0 UNK        -0.5240 
      4 N         -80.3965   29.3527  -74.6550 N.am      1 UNK        -0.4739 
      5 CA        -80.8349   28.4130  -73.6199 C.3       1 UNK         0.0864 
      6 C6        -82.0271   28.9538  -72.7917 C.3       11 UNK        -0.0881 
      7 S7        -81.6509   30.5281  -71.9460 S.3       11 UNK        -0.2682 
      8 C8        -81.1854   29.9687  -70.2755 C.3       11 UNK         0.0289 
      9 C9        -79.8000   29.3390  -70.2572 C.ar      11 UNK        -0.0687 
     10 C10       -79.6519   27.9491  -70.2791 C.ar      11 UNK        -0.0823 
     11 C11       -78.3803   27.3662  -70.2893 C.ar      11 UNK        -0.0830 
     12 C12       -77.2513   28.1936  -70.2277 C.ar      11 UNK        -0.1021 
     13 C13       -77.3852   29.5844  -70.2138 C.ar      11 UNK        -0.0753 
     14 C14       -78.6629   30.1509  -70.2232 C.ar      11 UNK        -0.0933 
     15 C15       -76.1522   30.4770  -70.1844 C.3       11 UNK         0.0166 
     16 S16       -75.9138   31.3663  -71.7566 S.3       11 UNK        -0.2615 
     17 C17       -75.3219   30.0454  -72.8697 C.3       11 UNK        -0.0865 
     18 CA        -73.8196   30.2097  -73.2236 C.3       10 UNK         0.0862 
     19 C         -72.9030   29.5232  -72.1783 C.2       10 UNK         0.5551 
     20 N         -72.3331   30.2839  -71.2541 N.am      10 UNK        -0.7319 
     21 O         -72.7390   28.3049  -72.1745 O.2       10 UNK        -0.5018 
     22 N         -73.5385   29.7121  -74.5747 N.am      10 UNK        -0.4509 
     23 C         -72.5799   30.1884  -75.3779 C.2       10 UNK         0.4899 
     24 O         -71.8490   31.1373  -75.0869 O.2       10 UNK        -0.4839 
     25 CA        -72.4334   29.4894  -76.7424 C.3       9 UNK         0.0222 
     26 CB        -71.2971   30.0697  -77.6116 C.3       9 UNK        -0.1966 
     27 N         -72.3109   28.0350  -76.6115 N.am      9 UNK        -0.4218 
     28 C         -71.3361   27.3392  -76.0062 C.2       9 UNK         0.5020 
     29 O         -70.3353   27.8519  -75.5027 O.2       9 UNK        -0.5274 
     30 CA        -71.4924   25.8057  -75.9378 C.3       8 UNK         0.0270 
     31 CB        -71.7363   25.3607  -74.4860 C.3       8 UNK        -0.1976 
     32 N         -72.5648   25.2750  -76.7870 N.am      8 UNK        -0.4313 
     33 C         -72.5169   25.1895  -78.1239 C.2       8 UNK         0.5041 
     34 O         -71.5242   25.4797  -78.7924 O.2       8 UNK        -0.5577 
     35 CA        -73.8060   24.7466  -78.8405 C.3       7 UNK         0.0284 
     36 CB        -73.9116   23.2139  -78.8793 C.3       7 UNK        -0.1958 
     37 N         -75.0192   25.3154  -78.2422 N.am      7 UNK        -0.4454 
     38 C         -75.3087   26.6257  -78.2103 C.2       7 UNK         0.5089 
     39 O         -74.6073   27.4944  -78.7276 O.2       7 UNK        -0.5125 
     40 CA        -76.5535   27.0484  -77.4140 C.3       6 UNK         0.0408 
     41 CB        -77.8381   26.8301  -78.2274 C.3       6 UNK        -0.1791 
     42 N         -76.6510   26.3436  -76.1377 N.am      6 UNK        -0.4762 
     43 C         -75.7880   26.4738  -75.1218 C.2       6 UNK         0.5007 
     44 O         -74.8401   27.2586  -75.1315 O.2       6 UNK        -0.5032 
     45 CA        -75.9705   25.5275  -73.9204 C.3       5 UNK         0.0783 
     46 C46       -76.9584   26.1034  -72.8823 C.3       11 UNK        -0.0857 
     47 S47       -76.8187   25.2225  -71.2906 S.3       11 UNK        -0.2512 
     48 C48       -78.2611   25.8437  -70.3565 C.3       11 UNK         0.0225 
     49 N         -76.3558   24.1808  -74.3496 N.am      5 UNK        -0.4615 
     50 C         -75.5597   23.3318  -75.0088 C.2       4 UNK         0.5053 
     51 O         -74.3941   23.5834  -75.3096 O.2       4 UNK        -0.5105 
     52 CA        -76.1809   21.9897  -75.4308 C.3       4 UNK         0.0263 
     53 CB        -76.1227   20.9808  -74.2730 C.3       4 UNK        -0.1981 
     54 N         -77.5648   22.1293  -75.8933 N.am      4 UNK        -0.4224 
     55 C         -77.9211   22.7649  -77.0189 C.2       3 UNK         0.4895 
     56 O         -77.1170   23.2592  -77.8098 O.2       3 UNK        -0.5091 
     57 CA        -79.4318   22.9202  -77.2791 C.3       3 UNK         0.0250 
     58 CB        -80.0047   21.6450  -77.9180 C.3       3 UNK        -0.1996 
     59 N         -80.2196   23.2759  -76.0886 N.am      3 UNK        -0.4254 
     60 C         -79.9915   24.3526  -75.3231 C.2       2 UNK         0.5004 
     61 O         -79.0441   25.1161  -75.5026 O.2       2 UNK        -0.5226 
     62 CA        -80.9380   24.5921  -74.1323 C.3       2 UNK         0.0269 
     63 CB        -80.6186   23.6082  -72.9936 C.3       2 UNK        -0.1926 
     64 N         -80.8207   25.9601  -73.6116 N.am      2 UNK        -0.4687 
     65 C         -81.1936   27.0648  -74.2727 C.2       1 UNK         0.5165 
     66 O         -81.8207   27.0479  -75.3359 O.2       1 UNK        -0.5079 
     67 H67       -78.1101   31.1458  -75.9253 H         1 UNK         0.0900 
     68 H68       -79.7535   30.9499  -76.5399 H         1 UNK         0.0900 
     69 H69       -78.4692   29.8726  -77.0948 H         1 UNK         0.0900 
     70 H70       -81.1276   29.8887  -75.0994 H         1 UNK         0.2959 
     71 H71       -79.9991   28.2448  -72.9393 H         1 UNK         0.1079 
     72 H72       -82.3463   28.2196  -72.0497 H         1 UNK         0.0837 
     73 H73       -82.8922   29.1208  -73.4366 H         1 UNK         0.0837 
     74 H74       -81.1995   30.8280  -69.6034 H         1 UNK         0.0685 
     75 H75       -81.9356   29.2747  -69.8932 H         1 UNK         0.0685 
     76 H76       -80.5322   27.3212  -70.3033 H         1 UNK         0.1434 
     77 H77       -76.2625   27.7566  -70.2135 H         1 UNK         0.1329 
     78 H78       -78.7713   31.2270  -70.2164 H         1 UNK         0.1335 
     79 H79       -75.2541   29.9021  -69.9524 H         1 UNK         0.0680 
     80 H80       -76.2624   31.2079  -69.3821 H         1 UNK         0.0680 
     81 H81       -75.5321   29.0611  -72.4513 H         1 UNK         0.1032 
     82 H82       -75.9315   30.1091  -73.7728 H         1 UNK         0.1032 
     83 H83       -73.5943   31.2786  -73.2251 H         1 UNK         0.0461 
     84 H84       -72.4785   31.2814  -71.2417 H         1 UNK         0.3453 
     85 H85       -71.7447   29.8535  -70.5583 H         1 UNK         0.3453 
     86 H86       -74.0329   28.8638  -74.8475 H         1 UNK         0.2984 
     87 H87       -73.3699   29.6636  -77.2743 H         1 UNK         0.0554 
     88 H88       -71.2432   29.5687  -78.5782 H         1 UNK         0.0847 
     89 H89       -70.3240   29.9743  -77.1292 H         1 UNK         0.0847 
     90 H90       -71.4590   31.1307  -77.8053 H         1 UNK         0.0847 
     91 H91       -73.0980   27.5087  -76.9695 H         1 UNK         0.3141 
     92 H92       -70.5492   25.3694  -76.2727 H         1 UNK         0.0743 
     93 H93       -72.6549   25.7895  -74.0849 H         1 UNK         0.0784 
     94 H94       -71.8070   24.2758  -74.4067 H         1 UNK         0.0784 
     95 H95       -70.9208   25.6809  -73.8361 H         1 UNK         0.0784 
     96 H96       -73.3894   24.9214  -76.3080 H         1 UNK         0.3213 
     97 H97       -73.7487   25.1071  -79.8698 H         1 UNK         0.0855 
     98 H98       -73.9896   22.7872  -77.8793 H         1 UNK         0.0814 
     99 H99       -73.0331   22.7746  -79.3537 H         1 UNK         0.0814 
    100 H100      -74.7833   22.8909  -79.4487 H         1 UNK         0.0814 
    101 H101      -75.6834   24.6607  -77.8381 H         1 UNK         0.3105 
    102 H102      -76.4679   28.1150  -77.1955 H         1 UNK         0.0547 
    103 H103      -77.9853   25.7795  -78.4781 H         1 UNK         0.0837 
    104 H104      -78.7161   27.1658  -77.6748 H         1 UNK         0.0837 
    105 H105      -77.8070   27.3894  -79.1631 H         1 UNK         0.0837 
    106 H106      -77.4644   25.7432  -76.0014 H         1 UNK         0.3020 
    107 H107      -74.9899   25.4534  -73.4446 H         1 UNK         0.1245 
    108 H108      -76.7558   27.1595  -72.7090 H         1 UNK         0.0781 
    109 H109      -77.9846   26.0514  -73.2457 H         1 UNK         0.0781 
    110 H110      -79.1604   25.4133  -70.7982 H         1 UNK         0.0836 
    111 H111      -78.2063   25.4561  -69.3385 H         1 UNK         0.0836 
    112 H112      -77.3178   23.9236  -74.1916 H         1 UNK         0.3022 
    113 H113      -75.5863   21.5947  -76.2574 H         1 UNK         0.0747 
    114 H114      -76.4888   20.0014  -74.5815 H         1 UNK         0.0793 
    115 H115      -75.0972   20.8468  -73.9257 H         1 UNK         0.0793 
    116 H116      -76.7158   21.3083  -73.4181 H         1 UNK         0.0793 
    117 H117      -78.2908   21.7514  -75.3024 H         1 UNK         0.3047 
    118 H118      -79.5488   23.7369  -77.9946 H         1 UNK         0.0822 
    119 H119      -81.0428   21.7842  -78.2205 H         1 UNK         0.0807 
    120 H120      -79.9644   20.7953  -77.2353 H         1 UNK         0.0807 
    121 H121      -79.4437   21.3711  -78.8128 H         1 UNK         0.0807 
    122 H122      -81.0069   22.6807  -75.8732 H         1 UNK         0.2946 
    123 H123      -81.9651   24.4371  -74.4706 H         1 UNK         0.1144 
    124 H124      -81.2742   23.7659  -72.1369 H         1 UNK         0.0793 
    125 H125      -79.5879   23.7066  -72.6499 H         1 UNK         0.0793 
    126 H126      -80.7565   22.5747  -73.3138 H         1 UNK         0.0793 
    127 H127      -80.3025   26.0642  -72.7536 H         1 UNK         0.2896 
@<TRIPOS>BOND
     1    1    2 1    
     2    1   67 1    
     3    1   68 1    
     4    1   69 1    
     5    2    3 2    
     6    2    4 am   BACKBONE|DICT|INTERRES
     7    4    5 1    
     8    4   70 1    
     9    5    6 1    
    10    5   65 1    
    11    5   71 1    
    12    6    7 1    
    13    6   72 1    
    14    6   73 1    
    15    7    8 1    
    16    8    9 1    
    17    8   74 1    
    18    8   75 1    
    19    9   10 ar   
    20    9   14 ar   
    21   10   11 ar   
    22   10   76 1    
    23   11   12 ar   
    24   11   48 1    
    25   12   13 ar   
    26   12   77 1    
    27   13   14 ar   
    28   13   15 1    
    29   14   78 1    
    30   15   16 1    
    31   15   79 1    
    32   15   80 1    
    33   16   17 1    
    34   17   18 1    
    35   17   81 1    
    36   17   82 1    
    37   18   19 1    
    38   18   22 1    
    39   18   83 1    
    40   19   20 am   BACKBONE|DICT|INTERRES
    41   19   21 2    
    42   20   84 1    
    43   20   85 1    
    44   22   23 am   BACKBONE|DICT|INTERRES
    45   22   86 1    
    46   23   24 2    
    47   23   25 1    
    48   25   26 1    
    49   25   27 1    
    50   25   87 1    
    51   26   88 1    
    52   26   89 1    
    53   26   90 1    
    54   27   28 am   BACKBONE|DICT|INTERRES
    55   27   91 1    
    56   28   29 2    
    57   28   30 1    
    58   30   31 1    
    59   30   32 1    
    60   30   92 1    
    61   31   93 1    
    62   31   94 1    
    63   31   95 1    
    64   32   33 am   BACKBONE|DICT|INTERRES
    65   32   96 1    
    66   33   34 2    
    67   33   35 1    
    68   35   36 1    
    69   35   37 1    
    70   35   97 1    
    71   36   98 1    
    72   36   99 1    
    73   36  100 1    
    74   37   38 am   BACKBONE|DICT|INTERRES
    75   37  101 1    
    76   38   39 2    
    77   38   40 1    
    78   40   41 1    
    79   40   42 1    
    80   40  102 1    
    81   41  103 1    
    82   41  104 1    
    83   41  105 1    
    84   42   43 am   BACKBONE|DICT|INTERRES
    85   42  106 1    
    86   43   44 2    
    87   43   45 1    
    88   45   46 1    
    89   45   49 1    
    90   45  107 1    
    91   46   47 1    
    92   46  108 1    
    93   46  109 1    
    94   47   48 1    
    95   48  110 1    
    96   48  111 1    
    97   49   50 am   BACKBONE|DICT|INTERRES
    98   49  112 1    
    99   50   51 2    
   100   50   52 1    
   101   52   53 1    
   102   52   54 1    
   103   52  113 1    
   104   53  114 1    
   105   53  115 1    
   106   53  116 1    
   107   54   55 am   BACKBONE|DICT|INTERRES
   108   54  117 1    
   109   55   56 2    
   110   55   57 1    
   111   57   58 1    
   112   57   59 1    
   113   57  118 1    
   114   58  119 1    
   115   58  120 1    
   116   58  121 1    
   117   59   60 am   BACKBONE|DICT|INTERRES
   118   59  122 1    
   119   60   61 2    
   120   60   62 1    
   121   62   63 1    
   122   62   64 1    
   123   62  123 1    
   124   63  124 1    
   125   63  125 1    
   126   63  126 1    
   127   64   65 am   BACKBONE|DICT|INTERRES
   128   64  127 1    
   129   65   66 2    
@<TRIPOS>SUBSTRUCTURE
     1 UNK         1 GROUP             0       ****    0 ROOT    
