@<TRIPOS>MOLECULE
3R135
127   129    1
SMALL
USER_CHARGES


@<TRIPOS>ATOM
      1 CA        -77.0105   23.6198  -72.7928 C.3       0 UNK        -0.1998 
      2 C         -78.2602   23.5802  -71.9259 C.2       0 UNK         0.4909 
      3 O         -78.2730   22.9163  -70.8901 O.2       0 UNK        -0.5240 
      4 N         -79.3262   24.2598  -72.3617 N.am      1 UNK        -0.4739 
      5 CA        -80.6314   24.3509  -71.6920 C.3       1 UNK         0.0864 
      6 C6        -81.2349   25.7765  -71.8233 C.3       11 UNK        -0.0881 
      7 S7        -80.1523   27.1082  -71.2001 S.3       11 UNK        -0.2682 
      8 C8        -79.2172   27.5025  -72.7132 C.3       11 UNK         0.0289 
      9 C9        -78.4541   28.8106  -72.6027 C.ar      11 UNK        -0.0687 
     10 C10       -78.7695   29.8698  -73.4545 C.ar      11 UNK        -0.0823 
     11 C11       -78.0194   31.0498  -73.4348 C.ar      11 UNK        -0.0830 
     12 C12       -76.9817   31.1853  -72.5073 C.ar      11 UNK        -0.1021 
     13 C13       -76.6743   30.1415  -71.6286 C.ar      11 UNK        -0.0753 
     14 C14       -77.4050   28.9512  -71.6903 C.ar      11 UNK        -0.0933 
     15 C15       -75.5630   30.2972  -70.6021 C.3       11 UNK         0.0166 
     16 S16       -73.9764   29.6663  -71.2251 S.3       11 UNK        -0.2615 
     17 C17       -73.4193   31.0643  -72.2628 C.3       11 UNK        -0.0865 
     18 CA        -72.0000   30.8749  -72.8597 C.3       10 UNK         0.0862 
     19 C         -70.8857   30.9402  -71.7737 C.2       10 UNK         0.5551 
     20 N         -70.5470   32.1378  -71.3144 N.am      10 UNK        -0.7319 
     21 O         -70.3482   29.9291  -71.3251 O.2       10 UNK        -0.5018 
     22 N         -71.9540   29.6797  -73.7105 N.am      10 UNK        -0.4509 
     23 C         -70.9436   29.3125  -74.5064 C.2       10 UNK         0.4899 
     24 O         -69.9191   29.9791  -74.6604 O.2       10 UNK        -0.4839 
     25 CA        -71.1173   28.0147  -75.3183 C.3       9 UNK         0.0222 
     26 CB        -69.8941   27.0815  -75.2035 C.3       9 UNK        -0.1966 
     27 N         -72.3772   27.3028  -75.0642 N.am      9 UNK        -0.4218 
     28 C         -72.7376   26.5607  -74.0054 C.2       9 UNK         0.5020 
     29 O         -72.0310   26.3694  -73.0161 O.2       9 UNK        -0.5274 
     30 CA        -74.1377   25.9175  -74.0660 C.3       8 UNK         0.0270 
     31 CB        -75.1834   26.8411  -73.4210 C.3       8 UNK        -0.1976 
     32 N         -74.5581   25.5894  -75.4322 N.am      8 UNK        -0.4313 
     33 C         -73.9661   24.6733  -76.2141 C.2       8 UNK         0.5041 
     34 O         -73.0684   23.9207  -75.8344 O.2       8 UNK        -0.5577 
     35 CA        -74.4299   24.6100  -77.6768 C.3       7 UNK         0.0284 
     36 CB        -75.6681   23.7147  -77.8194 C.3       7 UNK        -0.1958 
     37 N         -74.7245   25.9451  -78.2002 N.am      7 UNK        -0.4454 
     38 C         -73.7960   26.7977  -78.6553 C.2       7 UNK         0.5089 
     39 O         -72.6004   26.5219  -78.7516 O.2       7 UNK        -0.5125 
     40 CA        -74.2740   28.2034  -79.0617 C.3       6 UNK         0.0408 
     41 CB        -74.6098   28.2417  -80.5608 C.3       6 UNK        -0.1791 
     42 N         -75.4303   28.6742  -78.2942 N.am      6 UNK        -0.4762 
     43 C         -75.4086   28.9822  -76.9887 C.2       6 UNK         0.5007 
     44 O         -74.4022   28.9042  -76.2862 O.2       6 UNK        -0.5032 
     45 CA        -76.7478   29.4188  -76.3606 C.3       5 UNK         0.0783 
     46 C46       -76.9336   30.9492  -76.5656 C.3       11 UNK        -0.0857 
     47 S47       -78.5855   31.5891  -76.1194 S.3       11 UNK        -0.2512 
     48 C48       -78.3284   32.1791  -74.4109 C.3       11 UNK         0.0225 
     49 N         -77.8978   28.6350  -76.8391 N.am      5 UNK        -0.4615 
     50 C         -78.0157   27.2984  -76.8528 C.2       4 UNK         0.5053 
     51 O         -77.1173   26.5284  -76.5059 O.2       4 UNK        -0.5105 
     52 CA        -79.3484   26.7592  -77.4099 C.3       4 UNK         0.0263 
     53 CB        -79.5269   27.1767  -78.8821 C.3       4 UNK        -0.1981 
     54 N         -79.5062   25.3024  -77.3332 N.am      4 UNK        -0.4224 
     55 C         -79.6571   24.5786  -76.2172 C.2       3 UNK         0.4895 
     56 O         -79.5927   25.0406  -75.0737 O.2       3 UNK        -0.5091 
     57 CA        -79.9647   23.0843  -76.4240 C.3       3 UNK         0.0250 
     58 CB        -78.7472   22.3086  -76.9542 C.3       3 UNK        -0.1996 
     59 N         -80.3849   22.5031  -75.1544 N.am      3 UNK        -0.4254 
     60 C         -81.2711   21.5159  -74.9675 C.2       2 UNK         0.5004 
     61 O         -81.8345   20.9201  -75.8862 O.2       2 UNK        -0.5226 
     62 CA        -81.5773   21.1177  -73.5056 C.3       2 UNK         0.0269 
     63 CB        -81.0001   19.7275  -73.1915 C.3       2 UNK        -0.1926 
     64 N         -81.0336   22.0843  -72.5453 N.am      2 UNK        -0.4687 
     65 C         -81.5757   23.2841  -72.2919 C.2       1 UNK         0.5165 
     66 O         -82.7306   23.5762  -72.6079 O.2       1 UNK        -0.5079 
     67 H67       -76.1948   24.0948  -72.2488 H         1 UNK         0.0900 
     68 H68       -77.1724   24.1731  -73.7184 H         1 UNK         0.0900 
     69 H69       -76.7015   22.6084  -73.0552 H         1 UNK         0.0900 
     70 H70       -79.2787   24.7438  -73.2565 H         1 UNK         0.2959 
     71 H71       -80.5210   24.1246  -70.6292 H         1 UNK         0.1079 
     72 H72       -81.4974   25.9909  -72.8615 H         1 UNK         0.0837 
     73 H73       -82.1705   25.8361  -71.2640 H         1 UNK         0.0837 
     74 H74       -79.8985   27.5322  -73.5650 H         1 UNK         0.0685 
     75 H75       -78.5029   26.7081  -72.9231 H         1 UNK         0.0685 
     76 H76       -79.5795   29.7626  -74.1626 H         1 UNK         0.1434 
     77 H77       -76.4105   32.1028  -72.4679 H         1 UNK         0.1329 
     78 H78       -77.1590   28.1324  -71.0280 H         1 UNK         0.1335 
     79 H79       -75.4579   31.3410  -70.3023 H         1 UNK         0.0680 
     80 H80       -75.8237   29.7482  -69.6960 H         1 UNK         0.0680 
     81 H81       -73.4679   31.9850  -71.6785 H         1 UNK         0.1032 
     82 H82       -74.1348   31.1923  -73.0763 H         1 UNK         0.1032 
     83 H83       -71.8211   31.7173  -73.5309 H         1 UNK         0.0461 
     84 H84       -69.8359   32.2051  -70.6029 H         1 UNK         0.3453 
     85 H85       -70.9790   32.9765  -71.6697 H         1 UNK         0.3453 
     86 H86       -72.7396   29.0531  -73.6238 H         1 UNK         0.2984 
     87 H87       -71.1820   28.3304  -76.3606 H         1 UNK         0.0554 
     88 H88       -70.0292   26.1757  -75.7947 H         1 UNK         0.0847 
     89 H89       -69.7027   26.7862  -74.1716 H         1 UNK         0.0847 
     90 H90       -68.9923   27.5745  -75.5684 H         1 UNK         0.0847 
     91 H91       -73.1026   27.4907  -75.7496 H         1 UNK         0.3141 
     92 H92       -74.1024   24.9857  -73.4981 H         1 UNK         0.0743 
     93 H93       -75.1871   27.8329  -73.8732 H         1 UNK         0.0784 
     94 H94       -76.1894   26.4339  -73.5104 H         1 UNK         0.0784 
     95 H95       -74.9791   26.9719  -72.3578 H         1 UNK         0.0784 
     96 H96       -75.3511   26.1015  -75.8100 H         1 UNK         0.3213 
     97 H97       -73.6236   24.1669  -78.2659 H         1 UNK         0.0855 
     98 H98       -76.5090   24.1044  -77.2474 H         1 UNK         0.0814 
     99 H99       -75.4642   22.7065  -77.4563 H         1 UNK         0.0814 
    100 H100      -75.9795   23.6290  -78.8604 H         1 UNK         0.0814 
    101 H101      -75.6749   26.2751  -78.0886 H         1 UNK         0.3105 
    102 H102      -73.4485   28.8953  -78.8809 H         1 UNK         0.0547 
    103 H103      -73.7563   27.9203  -81.1595 H         1 UNK         0.0837 
    104 H104      -75.4450   27.5845  -80.8063 H         1 UNK         0.0837 
    105 H105      -74.8678   29.2500  -80.8850 H         1 UNK         0.0837 
    106 H106      -76.3047   28.7637  -78.7917 H         1 UNK         0.3020 
    107 H107      -76.6672   29.2258  -75.2893 H         1 UNK         0.1245 
    108 H108      -76.7773   31.2149  -77.6132 H         1 UNK         0.0781 
    109 H109      -76.1754   31.4991  -76.0043 H         1 UNK         0.0781 
    110 H110      -79.2317   32.6908  -74.0764 H         1 UNK         0.0836 
    111 H111      -77.5324   32.9254  -74.4104 H         1 UNK         0.0836 
    112 H112      -78.6851   29.1902  -77.1424 H         1 UNK         0.3022 
    113 H113      -80.1504   27.2070  -76.8192 H         1 UNK         0.0747 
    114 H114      -80.4791   26.8255  -79.2805 H         1 UNK         0.0793 
    115 H115      -79.5203   28.2608  -79.0006 H         1 UNK         0.0793 
    116 H116      -78.7328   26.7750  -79.5133 H         1 UNK         0.0793 
    117 H117      -79.5424   24.8195  -78.2187 H         1 UNK         0.3047 
    118 H118      -80.7851   23.0093  -77.1412 H         1 UNK         0.0822 
    119 H119      -78.4225   22.6926  -77.9214 H         1 UNK         0.0807 
    120 H120      -78.9830   21.2535  -77.0947 H         1 UNK         0.0807 
    121 H121      -77.9030   22.3699  -76.2666 H         1 UNK         0.0807 
    122 H122      -80.0282   22.9859  -74.3422 H         1 UNK         0.2946 
    123 H123      -82.6638   21.0758  -73.3980 H         1 UNK         0.1144 
    124 H124      -81.4071   18.9738  -73.8673 H         1 UNK         0.0793 
    125 H125      -81.2461   19.4160  -72.1762 H         1 UNK         0.0793 
    126 H126      -79.9146   19.7070  -73.2963 H         1 UNK         0.0793 
    127 H127      -80.0927   21.9156  -72.2145 H         1 UNK         0.2896 
@<TRIPOS>BOND
     1    1    2 1    
     2    1   67 1    
     3    1   68 1    
     4    1   69 1    
     5    2    3 2    
     6    2    4 am   BACKBONE|DICT|INTERRES
     7    4    5 1    
     8    4   70 1    
     9    5    6 1    
    10    5   65 1    
    11    5   71 1    
    12    6    7 1    
    13    6   72 1    
    14    6   73 1    
    15    7    8 1    
    16    8    9 1    
    17    8   74 1    
    18    8   75 1    
    19    9   10 ar   
    20    9   14 ar   
    21   10   11 ar   
    22   10   76 1    
    23   11   12 ar   
    24   11   48 1    
    25   12   13 ar   
    26   12   77 1    
    27   13   14 ar   
    28   13   15 1    
    29   14   78 1    
    30   15   16 1    
    31   15   79 1    
    32   15   80 1    
    33   16   17 1    
    34   17   18 1    
    35   17   81 1    
    36   17   82 1    
    37   18   19 1    
    38   18   22 1    
    39   18   83 1    
    40   19   20 am   BACKBONE|DICT|INTERRES
    41   19   21 2    
    42   20   84 1    
    43   20   85 1    
    44   22   23 am   BACKBONE|DICT|INTERRES
    45   22   86 1    
    46   23   24 2    
    47   23   25 1    
    48   25   26 1    
    49   25   27 1    
    50   25   87 1    
    51   26   88 1    
    52   26   89 1    
    53   26   90 1    
    54   27   28 am   BACKBONE|DICT|INTERRES
    55   27   91 1    
    56   28   29 2    
    57   28   30 1    
    58   30   31 1    
    59   30   32 1    
    60   30   92 1    
    61   31   93 1    
    62   31   94 1    
    63   31   95 1    
    64   32   33 am   BACKBONE|DICT|INTERRES
    65   32   96 1    
    66   33   34 2    
    67   33   35 1    
    68   35   36 1    
    69   35   37 1    
    70   35   97 1    
    71   36   98 1    
    72   36   99 1    
    73   36  100 1    
    74   37   38 am   BACKBONE|DICT|INTERRES
    75   37  101 1    
    76   38   39 2    
    77   38   40 1    
    78   40   41 1    
    79   40   42 1    
    80   40  102 1    
    81   41  103 1    
    82   41  104 1    
    83   41  105 1    
    84   42   43 am   BACKBONE|DICT|INTERRES
    85   42  106 1    
    86   43   44 2    
    87   43   45 1    
    88   45   46 1    
    89   45   49 1    
    90   45  107 1    
    91   46   47 1    
    92   46  108 1    
    93   46  109 1    
    94   47   48 1    
    95   48  110 1    
    96   48  111 1    
    97   49   50 am   BACKBONE|DICT|INTERRES
    98   49  112 1    
    99   50   51 2    
   100   50   52 1    
   101   52   53 1    
   102   52   54 1    
   103   52  113 1    
   104   53  114 1    
   105   53  115 1    
   106   53  116 1    
   107   54   55 am   BACKBONE|DICT|INTERRES
   108   54  117 1    
   109   55   56 2    
   110   55   57 1    
   111   57   58 1    
   112   57   59 1    
   113   57  118 1    
   114   58  119 1    
   115   58  120 1    
   116   58  121 1    
   117   59   60 am   BACKBONE|DICT|INTERRES
   118   59  122 1    
   119   60   61 2    
   120   60   62 1    
   121   62   63 1    
   122   62   64 1    
   123   62  123 1    
   124   63  124 1    
   125   63  125 1    
   126   63  126 1    
   127   64   65 am   BACKBONE|DICT|INTERRES
   128   64  127 1    
   129   65   66 2    
@<TRIPOS>SUBSTRUCTURE
     1 UNK         1 GROUP             0       ****    0 ROOT    
