@<TRIPOS>MOLECULE
3R135
127   129    1
SMALL
USER_CHARGES


@<TRIPOS>ATOM
      1 CA        -81.7155   22.6061  -70.0945 C.3       0 UNK        -0.1998 
      2 C         -82.1442   23.7426  -71.0106 C.2       0 UNK         0.4909 
      3 O         -83.2972   23.7793  -71.4431 O.2       0 UNK        -0.5240 
      4 N         -81.2277   24.6743  -71.2999 N.am      1 UNK        -0.4739 
      5 CA        -81.4408   25.8080  -72.2086 C.3       1 UNK         0.0864 
      6 C6        -80.3843   26.9230  -72.0006 C.3       11 UNK        -0.0881 
      7 S7        -80.2873   27.4918  -70.2675 S.3       11 UNK        -0.2682 
      8 C8        -80.0252   29.2826  -70.4695 C.3       11 UNK         0.0289 
      9 C9        -78.7841   29.5910  -71.2963 C.ar      11 UNK        -0.0687 
     10 C10       -78.9083   30.2019  -72.5477 C.ar      11 UNK        -0.0823 
     11 C11       -77.7762   30.4876  -73.3166 C.ar      11 UNK        -0.0830 
     12 C12       -76.5114   30.1531  -72.8228 C.ar      11 UNK        -0.1021 
     13 C13       -76.3750   29.5354  -71.5765 C.ar      11 UNK        -0.0753 
     14 C14       -77.5133   29.2652  -70.8123 C.ar      11 UNK        -0.0933 
     15 C15       -74.9961   29.1458  -71.0738 C.3       11 UNK         0.0166 
     16 S16       -74.0777   30.5980  -70.4800 S.3       11 UNK        -0.2615 
     17 C17       -72.3724   29.9476  -70.4846 C.3       11 UNK        -0.0865 
     18 CA        -71.5622   30.4219  -71.7211 C.3       10 UNK         0.0862 
     19 C         -70.0565   30.0464  -71.5853 C.2       10 UNK         0.5551 
     20 N         -69.4656   29.3025  -72.5128 N.am      10 UNK        -0.7319 
     21 O         -69.4095   30.4465  -70.6205 O.2       10 UNK        -0.5018 
     22 N         -72.1869   29.9816  -72.9805 N.am      10 UNK        -0.4509 
     23 C         -72.0587   30.5862  -74.1655 C.2       10 UNK         0.4899 
     24 O         -71.4054   31.6157  -74.3417 O.2       10 UNK        -0.4839 
     25 CA        -72.7587   29.8965  -75.3535 C.3       9 UNK         0.0222 
     26 CB        -72.6745   30.7228  -76.6504 C.3       9 UNK        -0.1966 
     27 N         -72.2101   28.5586  -75.6005 N.am      9 UNK        -0.4218 
     28 C         -72.5012   27.4635  -74.8873 C.2       9 UNK         0.5020 
     29 O         -73.2771   27.4622  -73.9302 O.2       9 UNK        -0.5274 
     30 CA        -71.7818   26.1702  -75.2822 C.3       8 UNK         0.0270 
     31 CB        -71.1971   25.4491  -74.0519 C.3       8 UNK        -0.1976 
     32 N         -72.7141   25.2920  -75.9845 N.am      8 UNK        -0.4313 
     33 C         -72.3508   24.3765  -76.8930 C.2       8 UNK         0.5041 
     34 O         -71.1817   24.1666  -77.2213 O.2       8 UNK        -0.5577 
     35 CA        -73.4687   23.5586  -77.5634 C.3       7 UNK         0.0284 
     36 CB        -74.0013   22.4718  -76.6156 C.3       7 UNK        -0.1958 
     37 N         -74.5728   24.3927  -78.0402 N.am      7 UNK        -0.4454 
     38 C         -74.4855   25.2702  -79.0508 C.2       7 UNK         0.5089 
     39 O         -73.4787   25.4264  -79.7424 O.2       7 UNK        -0.5125 
     40 CA        -75.7273   26.1372  -79.3261 C.3       6 UNK         0.0408 
     41 CB        -76.7001   25.4269  -80.2810 C.3       6 UNK        -0.1791 
     42 N         -76.4200   26.5174  -78.0922 N.am      6 UNK        -0.4762 
     43 C         -75.9191   27.3768  -77.1909 C.2       6 UNK         0.5007 
     44 O         -74.8630   27.9852  -77.3546 O.2       6 UNK        -0.5032 
     45 CA        -76.7127   27.5617  -75.8799 C.3       5 UNK         0.0783 
     46 C46       -77.7815   28.6746  -76.0221 C.3       11 UNK        -0.0857 
     47 S47       -77.0374   30.3429  -76.0188 S.3       11 UNK        -0.2512 
     48 C48       -77.9318   31.1773  -74.6673 C.3       11 UNK         0.0225 
     49 N         -77.3018   26.2952  -75.4309 N.am      5 UNK        -0.4615 
     50 C         -76.5882   25.2531  -74.9751 C.2       4 UNK         0.5053 
     51 O         -75.3668   25.2750  -74.8357 O.2       4 UNK        -0.5105 
     52 CA        -77.3412   23.9388  -74.6932 C.3       4 UNK         0.0263 
     53 CB        -77.7703   23.8520  -73.2217 C.3       4 UNK        -0.1981 
     54 N         -78.4981   23.7456  -75.5720 N.am      4 UNK        -0.4224 
     55 C         -78.3926   23.5858  -76.9006 C.2       3 UNK         0.4895 
     56 O         -77.3109   23.4920  -77.4803 O.2       3 UNK        -0.5091 
     57 CA        -79.6816   23.5784  -77.7430 C.3       3 UNK         0.0250 
     58 CB        -80.0620   22.1389  -78.1229 C.3       3 UNK        -0.1996 
     59 N         -80.8331   24.2312  -77.1138 N.am      3 UNK        -0.4254 
     60 C         -80.8948   25.5076  -76.7067 C.2       2 UNK         0.5004 
     61 O         -79.9620   26.3056  -76.8113 O.2       2 UNK        -0.5226 
     62 CA        -82.1949   25.9581  -76.0096 C.3       2 UNK         0.0269 
     63 CB        -83.3914   25.0069  -76.2418 C.3       2 UNK        -0.1926 
     64 N         -82.0121   26.1830  -74.5677 N.am      2 UNK        -0.4687 
     65 C         -81.4619   25.3384  -73.6803 C.2       1 UNK         0.5165 
     66 O         -80.9658   24.2493  -73.9872 O.2       1 UNK        -0.5079 
     67 H67       -82.3419   22.5855  -69.2030 H         1 UNK         0.0900 
     68 H68       -81.8210   21.6510  -70.6083 H         1 UNK         0.0900 
     69 H69       -80.6777   22.7076  -69.7775 H         1 UNK         0.0900 
     70 H70       -80.2976   24.5950  -70.9158 H         1 UNK         0.2959 
     71 H71       -82.4250   26.2276  -71.9871 H         1 UNK         0.1079 
     72 H72       -79.3891   26.5930  -72.2995 H         1 UNK         0.0837 
     73 H73       -80.6185   27.7779  -72.6372 H         1 UNK         0.0837 
     74 H74       -80.9159   29.7238  -70.9195 H         1 UNK         0.0685 
     75 H75       -79.9214   29.7384  -69.4839 H         1 UNK         0.0685 
     76 H76       -79.8899   30.4592  -72.9219 H         1 UNK         0.1434 
     77 H77       -75.6294   30.3710  -73.4093 H         1 UNK         0.1329 
     78 H78       -77.4153   28.7879  -69.8467 H         1 UNK         0.1335 
     79 H79       -75.0670   28.4111  -70.2703 H         1 UNK         0.0680 
     80 H80       -74.4504   28.6630  -71.8838 H         1 UNK         0.0680 
     81 H81       -71.8971   30.2910  -69.5636 H         1 UNK         0.1032 
     82 H82       -72.3853   28.8577  -70.4246 H         1 UNK         0.1032 
     83 H83       -71.5842   31.5135  -71.7149 H         1 UNK         0.0461 
     84 H84       -69.9823   28.9887  -73.3170 H         1 UNK         0.3453 
     85 H85       -68.4895   29.0721  -72.4138 H         1 UNK         0.3453 
     86 H86       -72.6996   29.1059  -72.9562 H         1 UNK         0.2984 
     87 H87       -73.8161   29.7985  -75.0977 H         1 UNK         0.0554 
     88 H88       -73.1047   31.7151  -76.5085 H         1 UNK         0.0847 
     89 H89       -73.2299   30.2466  -77.4587 H         1 UNK         0.0847 
     90 H90       -71.6443   30.8568  -76.9825 H         1 UNK         0.0847 
     91 H91       -71.5579   28.4784  -76.3675 H         1 UNK         0.3141 
     92 H92       -70.9570   26.4296  -75.9497 H         1 UNK         0.0743 
     93 H93       -71.9820   25.1128  -73.3731 H         1 UNK         0.0784 
     94 H94       -70.6120   24.5769  -74.3435 H         1 UNK         0.0784 
     95 H95       -70.5367   26.1092  -73.4881 H         1 UNK         0.0784 
     96 H96       -73.6954   25.3903  -75.7235 H         1 UNK         0.3213 
     97 H97       -73.0371   23.0589  -78.4336 H         1 UNK         0.0855 
     98 H98       -74.4043   22.8957  -75.6965 H         1 UNK         0.0814 
     99 H99       -73.2047   21.7833  -76.3308 H         1 UNK         0.0814 
    100 H100      -74.7880   21.8821  -77.0869 H         1 UNK         0.0814 
    101 H101      -75.4740   24.2716  -77.5886 H         1 UNK         0.3105 
    102 H102      -75.3900   27.0528  -79.8168 H         1 UNK         0.0547 
    103 H103      -76.2140   25.2073  -81.2324 H         1 UNK         0.0837 
    104 H104      -77.0555   24.4796  -79.8765 H         1 UNK         0.0837 
    105 H105      -77.5692   26.0476  -80.4984 H         1 UNK         0.0837 
    106 H106      -77.2848   26.0399  -77.8803 H         1 UNK         0.3020 
    107 H107      -75.9973   27.8678  -75.1113 H         1 UNK         0.1245 
    108 H108      -78.4985   28.6052  -75.2029 H         1 UNK         0.0781 
    109 H109      -78.3685   28.5495  -76.9341 H         1 UNK         0.0781 
    110 H110      -78.9838   31.2547  -74.9465 H         1 UNK         0.0836 
    111 H111      -77.5616   32.1997  -74.5817 H         1 UNK         0.0836 
    112 H112      -78.2959   26.1831  -75.5983 H         1 UNK         0.3022 
    113 H113      -76.6474   23.1175  -74.8819 H         1 UNK         0.0747 
    114 H114      -78.2531   22.8991  -73.0041 H         1 UNK         0.0793 
    115 H115      -76.9084   23.9402  -72.5588 H         1 UNK         0.0793 
    116 H116      -78.4655   24.6456  -72.9586 H         1 UNK         0.0793 
    117 H117      -79.4196   23.8238  -75.1490 H         1 UNK         0.3047 
    118 H118      -79.4626   24.1273  -78.6611 H         1 UNK         0.0822 
    119 H119      -80.9091   22.1187  -78.8089 H         1 UNK         0.0807 
    120 H120      -80.3240   21.5462  -77.2454 H         1 UNK         0.0807 
    121 H121      -79.2329   21.6342  -78.6214 H         1 UNK         0.0807 
    122 H122      -81.6379   23.6468  -76.9397 H         1 UNK         0.2946 
    123 H123      -82.4488   26.9229  -76.4522 H         1 UNK         0.1144 
    124 H124      -84.3099   25.4346  -75.8394 H         1 UNK         0.0793 
    125 H125      -83.2495   24.0368  -75.7635 H         1 UNK         0.0793 
    126 H126      -83.5630   24.8360  -77.3057 H         1 UNK         0.0793 
    127 H127      -82.3533   27.0720  -74.2288 H         1 UNK         0.2896 
@<TRIPOS>BOND
     1    1    2 1    
     2    1   67 1    
     3    1   68 1    
     4    1   69 1    
     5    2    3 2    
     6    2    4 am   BACKBONE|DICT|INTERRES
     7    4    5 1    
     8    4   70 1    
     9    5    6 1    
    10    5   65 1    
    11    5   71 1    
    12    6    7 1    
    13    6   72 1    
    14    6   73 1    
    15    7    8 1    
    16    8    9 1    
    17    8   74 1    
    18    8   75 1    
    19    9   10 ar   
    20    9   14 ar   
    21   10   11 ar   
    22   10   76 1    
    23   11   12 ar   
    24   11   48 1    
    25   12   13 ar   
    26   12   77 1    
    27   13   14 ar   
    28   13   15 1    
    29   14   78 1    
    30   15   16 1    
    31   15   79 1    
    32   15   80 1    
    33   16   17 1    
    34   17   18 1    
    35   17   81 1    
    36   17   82 1    
    37   18   19 1    
    38   18   22 1    
    39   18   83 1    
    40   19   20 am   BACKBONE|DICT|INTERRES
    41   19   21 2    
    42   20   84 1    
    43   20   85 1    
    44   22   23 am   BACKBONE|DICT|INTERRES
    45   22   86 1    
    46   23   24 2    
    47   23   25 1    
    48   25   26 1    
    49   25   27 1    
    50   25   87 1    
    51   26   88 1    
    52   26   89 1    
    53   26   90 1    
    54   27   28 am   BACKBONE|DICT|INTERRES
    55   27   91 1    
    56   28   29 2    
    57   28   30 1    
    58   30   31 1    
    59   30   32 1    
    60   30   92 1    
    61   31   93 1    
    62   31   94 1    
    63   31   95 1    
    64   32   33 am   BACKBONE|DICT|INTERRES
    65   32   96 1    
    66   33   34 2    
    67   33   35 1    
    68   35   36 1    
    69   35   37 1    
    70   35   97 1    
    71   36   98 1    
    72   36   99 1    
    73   36  100 1    
    74   37   38 am   BACKBONE|DICT|INTERRES
    75   37  101 1    
    76   38   39 2    
    77   38   40 1    
    78   40   41 1    
    79   40   42 1    
    80   40  102 1    
    81   41  103 1    
    82   41  104 1    
    83   41  105 1    
    84   42   43 am   BACKBONE|DICT|INTERRES
    85   42  106 1    
    86   43   44 2    
    87   43   45 1    
    88   45   46 1    
    89   45   49 1    
    90   45  107 1    
    91   46   47 1    
    92   46  108 1    
    93   46  109 1    
    94   47   48 1    
    95   48  110 1    
    96   48  111 1    
    97   49   50 am   BACKBONE|DICT|INTERRES
    98   49  112 1    
    99   50   51 2    
   100   50   52 1    
   101   52   53 1    
   102   52   54 1    
   103   52  113 1    
   104   53  114 1    
   105   53  115 1    
   106   53  116 1    
   107   54   55 am   BACKBONE|DICT|INTERRES
   108   54  117 1    
   109   55   56 2    
   110   55   57 1    
   111   57   58 1    
   112   57   59 1    
   113   57  118 1    
   114   58  119 1    
   115   58  120 1    
   116   58  121 1    
   117   59   60 am   BACKBONE|DICT|INTERRES
   118   59  122 1    
   119   60   61 2    
   120   60   62 1    
   121   62   63 1    
   122   62   64 1    
   123   62  123 1    
   124   63  124 1    
   125   63  125 1    
   126   63  126 1    
   127   64   65 am   BACKBONE|DICT|INTERRES
   128   64  127 1    
   129   65   66 2    
@<TRIPOS>SUBSTRUCTURE
     1 UNK         1 GROUP             0       ****    0 ROOT    
