@<TRIPOS>MOLECULE
3R135
127   129    1
SMALL
USER_CHARGES


@<TRIPOS>ATOM
      1 CA        -81.8292   24.5572  -72.1040 C.3       0 UNK        -0.1998 
      2 C         -81.8600   25.4844  -73.3097 C.2       0 UNK         0.4909 
      3 O         -82.7057   25.3180  -74.1907 O.2       0 UNK        -0.5240 
      4 N         -80.9470   26.4637  -73.3552 N.am      1 UNK        -0.4739 
      5 CA        -80.7947   27.4195  -74.4557 C.3       1 UNK         0.0864 
      6 C6        -79.8124   28.5616  -74.1118 C.3       11 UNK        -0.0881 
      7 S7        -80.3706   29.5861  -72.7053 S.3       11 UNK        -0.2682 
      8 C8        -79.3138   29.0110  -71.3293 C.3       11 UNK         0.0289 
      9 C9        -77.8302   28.9790  -71.6796 C.ar      11 UNK        -0.0687 
     10 C10       -77.0870   27.8121  -71.4687 C.ar      11 UNK        -0.0823 
     11 C11       -75.7366   27.7576  -71.8253 C.ar      11 UNK        -0.0830 
     12 C12       -75.1352   28.8755  -72.4085 C.ar      11 UNK        -0.1021 
     13 C13       -75.8648   30.0479  -72.6202 C.ar      11 UNK        -0.0753 
     14 C14       -77.2070   30.1002  -72.2387 C.ar      11 UNK        -0.0933 
     15 C15       -75.2091   31.2402  -73.2938 C.3       11 UNK         0.0166 
     16 S16       -74.3347   32.2841  -72.0915 S.3       11 UNK        -0.2615 
     17 C17       -73.1793   33.1699  -73.1999 C.3       11 UNK        -0.0865 
     18 CA        -71.7086   32.6780  -73.0979 C.3       10 UNK         0.0862 
     19 C         -71.0105   33.1990  -71.8072 C.2       10 UNK         0.5551 
     20 N         -70.5992   34.4599  -71.7966 N.am      10 UNK        -0.7319 
     21 O         -70.8627   32.4886  -70.8140 O.2       10 UNK        -0.5018 
     22 N         -71.6155   31.2198  -73.2698 N.am      10 UNK        -0.4509 
     23 C         -70.4772   30.5367  -73.4396 C.2       10 UNK         0.4899 
     24 O         -69.3776   31.0595  -73.6225 O.2       10 UNK        -0.4839 
     25 CA        -70.5922   29.0099  -73.4261 C.3       9 UNK         0.0222 
     26 CB        -71.0957   28.4762  -72.0694 C.3       9 UNK        -0.1966 
     27 N         -71.4323   28.5578  -74.5362 N.am      9 UNK        -0.4218 
     28 C         -71.3419   27.3538  -75.1124 C.2       9 UNK         0.5020 
     29 O         -70.6381   26.4412  -74.6738 O.2       9 UNK        -0.5274 
     30 CA        -72.1437   27.1473  -76.4127 C.3       8 UNK         0.0270 
     31 CB        -71.8408   25.7952  -77.0852 C.3       8 UNK        -0.1976 
     32 N         -73.5906   27.2715  -76.2187 N.am      8 UNK        -0.4313 
     33 C         -74.2526   28.4347  -76.1357 C.2       8 UNK         0.5041 
     34 O         -73.6715   29.5221  -76.1004 O.2       8 UNK        -0.5577 
     35 CA        -75.7985   28.4002  -76.0739 C.3       7 UNK         0.0284 
     36 CB        -76.4401   29.6174  -76.7698 C.3       7 UNK        -0.1958 
     37 N         -76.4101   27.1563  -76.5556 N.am      7 UNK        -0.4454 
     38 C         -76.2877   26.5669  -77.7554 C.2       7 UNK         0.5089 
     39 O         -75.6893   27.0606  -78.7119 O.2       7 UNK        -0.5125 
     40 CA        -76.9082   25.1549  -77.8692 C.3       6 UNK         0.0408 
     41 CB        -76.2880   24.3143  -79.0043 C.3       6 UNK        -0.1791 
     42 N         -76.8774   24.4232  -76.5914 N.am      6 UNK        -0.4762 
     43 C         -75.7791   24.1323  -75.8744 C.2       6 UNK         0.5007 
     44 O         -74.6330   24.3302  -76.2750 O.2       6 UNK        -0.5032 
     45 CA        -75.9942   23.5966  -74.4474 C.3       5 UNK         0.0783 
     46 C46       -76.1497   24.7565  -73.4289 C.3       11 UNK        -0.0857 
     47 S47       -74.5620   25.5978  -73.1060 S.3       11 UNK        -0.2512 
     48 C48       -74.9160   26.5023  -71.5693 C.3       11 UNK         0.0225 
     49 N         -77.1205   22.6649  -74.3835 N.am      5 UNK        -0.4615 
     50 C         -77.0811   21.3918  -74.7909 C.2       4 UNK         0.5053 
     51 O         -76.0809   20.8590  -75.2720 O.2       4 UNK        -0.5105 
     52 CA        -78.3641   20.5594  -74.6137 C.3       4 UNK         0.0263 
     53 CB        -78.7267   20.3923  -73.1234 C.3       4 UNK        -0.1981 
     54 N         -79.5151   21.0346  -75.3943 N.am      4 UNK        -0.4224 
     55 C         -80.1642   22.2022  -75.2926 C.2       3 UNK         0.4895 
     56 O         -79.8587   23.1005  -74.5049 O.2       3 UNK        -0.5091 
     57 CA        -81.3931   22.3714  -76.1959 C.3       3 UNK         0.0250 
     58 CB        -82.6703   21.9657  -75.4430 C.3       3 UNK        -0.1996 
     59 N         -81.5116   23.7621  -76.6266 N.am      3 UNK        -0.4254 
     60 C         -80.8918   24.2731  -77.6994 C.2       2 UNK         0.5004 
     61 O         -80.2295   23.6018  -78.4912 O.2       2 UNK        -0.5226 
     62 CA        -81.0246   25.7892  -77.9351 C.3       2 UNK         0.0269 
     63 CB        -82.1727   26.0816  -78.9145 C.3       2 UNK        -0.1926 
     64 N         -81.2376   26.5498  -76.7020 N.am      2 UNK        -0.4687 
     65 C         -80.3312   26.6825  -75.7244 C.2       1 UNK         0.5165 
     66 O         -79.1829   26.2365  -75.7803 O.2       1 UNK        -0.5079 
     67 H67       -81.0485   24.8349  -71.3964 H         1 UNK         0.0900 
     68 H68       -81.6446   23.5326  -72.4254 H         1 UNK         0.0900 
     69 H69       -82.7862   24.5852  -71.5840 H         1 UNK         0.0900 
     70 H70       -80.2627   26.5391  -72.6185 H         1 UNK         0.2959 
     71 H71       -81.7734   27.8650  -74.6479 H         1 UNK         0.1079 
     72 H72       -78.8140   28.1628  -73.9302 H         1 UNK         0.0837 
     73 H73       -79.7050   29.2322  -74.9666 H         1 UNK         0.0837 
     74 H74       -79.4597   29.6722  -70.4744 H         1 UNK         0.0685 
     75 H75       -79.6592   28.0248  -71.0164 H         1 UNK         0.0685 
     76 H76       -77.5588   26.9439  -71.0294 H         1 UNK         0.1434 
     77 H77       -74.1011   28.8254  -72.7138 H         1 UNK         0.1329 
     78 H78       -77.7774   31.0037  -72.4060 H         1 UNK         0.1335 
     79 H79       -75.9519   31.8405  -73.8217 H         1 UNK         0.0680 
     80 H80       -74.5096   30.8860  -74.0502 H         1 UNK         0.0680 
     81 H81       -73.2463   34.2382  -72.9855 H         1 UNK         0.1032 
     82 H82       -73.5203   33.0710  -74.2317 H         1 UNK         0.1032 
     83 H83       -71.1662   33.1170  -73.9379 H         1 UNK         0.0461 
     84 H84       -70.1540   34.8222  -70.9677 H         1 UNK         0.3453 
     85 H85       -70.7150   35.0552  -72.6021 H         1 UNK         0.3453 
     86 H86       -72.4651   30.7130  -73.0758 H         1 UNK         0.2984 
     87 H87       -69.5848   28.6177  -73.5835 H         1 UNK         0.0554 
     88 H88       -71.1572   27.3878  -72.0648 H         1 UNK         0.0847 
     89 H89       -72.0765   28.8664  -71.8043 H         1 UNK         0.0847 
     90 H90       -70.4129   28.7627  -71.2686 H         1 UNK         0.0847 
     91 H91       -72.0383   29.2453  -74.9793 H         1 UNK         0.3141 
     92 H92       -71.8241   27.9263  -77.1085 H         1 UNK         0.0743 
     93 H93       -70.7841   25.7163  -77.3437 H         1 UNK         0.0784 
     94 H94       -72.0775   24.9565  -76.4297 H         1 UNK         0.0784 
     95 H95       -72.4108   25.6715  -78.0064 H         1 UNK         0.0784 
     96 H96       -74.1129   26.4020  -76.1989 H         1 UNK         0.3213 
     97 H97       -76.0549   28.4566  -75.0165 H         1 UNK         0.0855 
     98 H98       -76.0973   30.5517  -76.3239 H         1 UNK         0.0814 
     99 H99       -77.5261   29.5981  -76.6798 H         1 UNK         0.0814 
    100 H100      -76.1901   29.6517  -77.8305 H         1 UNK         0.0814 
    101 H101      -77.0004   26.6730  -75.8890 H         1 UNK         0.3105 
    102 H102      -77.9589   25.3034  -78.1112 H         1 UNK         0.0547 
    103 H103      -76.4363   24.7958  -79.9714 H         1 UNK         0.0837 
    104 H104      -75.2143   24.1791  -78.8716 H         1 UNK         0.0837 
    105 H105      -76.7477   23.3278  -79.0614 H         1 UNK         0.0837 
    106 H106      -77.7806   24.2722  -76.1591 H         1 UNK         0.3020 
    107 H107      -75.0950   23.0348  -74.1816 H         1 UNK         0.1245 
    108 H108      -76.5128   24.3614  -72.4788 H         1 UNK         0.0781 
    109 H109      -76.8932   25.4867  -73.7558 H         1 UNK         0.0781 
    110 H110      -73.9691   26.7855  -71.1071 H         1 UNK         0.0836 
    111 H111      -75.4138   25.8432  -70.8564 H         1 UNK         0.0836 
    112 H112      -78.0226   23.0310  -74.0887 H         1 UNK         0.3022 
    113 H113      -78.1404   19.5636  -75.0005 H         1 UNK         0.0747 
    114 H114      -79.5641   19.7062  -72.9964 H         1 UNK         0.0793 
    115 H115      -77.8858   19.9829  -72.5620 H         1 UNK         0.0793 
    116 H116      -78.9987   21.3381  -72.6540 H         1 UNK         0.0793 
    117 H117      -79.8440   20.3814  -76.0924 H         1 UNK         0.3047 
    118 H118      -81.2894   21.7273  -77.0721 H         1 UNK         0.0822 
    119 H119      -83.5536   22.0787  -76.0719 H         1 UNK         0.0807 
    120 H120      -82.8203   22.5676  -74.5460 H         1 UNK         0.0807 
    121 H121      -82.6261   20.9216  -75.1305 H         1 UNK         0.0807 
    122 H122      -81.9701   24.3941  -75.9790 H         1 UNK         0.2946 
    123 H123      -80.0949   26.1363  -78.3894 H         1 UNK         0.1144 
    124 H124      -82.0275   25.5485  -79.8553 H         1 UNK         0.0793 
    125 H125      -82.2316   27.1439  -79.1524 H         1 UNK         0.0793 
    126 H126      -83.1375   25.7724  -78.5104 H         1 UNK         0.0793 
    127 H127      -82.1663   26.9198  -76.5560 H         1 UNK         0.2896 
@<TRIPOS>BOND
     1    1    2 1    
     2    1   67 1    
     3    1   68 1    
     4    1   69 1    
     5    2    3 2    
     6    2    4 am   BACKBONE|DICT|INTERRES
     7    4    5 1    
     8    4   70 1    
     9    5    6 1    
    10    5   65 1    
    11    5   71 1    
    12    6    7 1    
    13    6   72 1    
    14    6   73 1    
    15    7    8 1    
    16    8    9 1    
    17    8   74 1    
    18    8   75 1    
    19    9   10 ar   
    20    9   14 ar   
    21   10   11 ar   
    22   10   76 1    
    23   11   12 ar   
    24   11   48 1    
    25   12   13 ar   
    26   12   77 1    
    27   13   14 ar   
    28   13   15 1    
    29   14   78 1    
    30   15   16 1    
    31   15   79 1    
    32   15   80 1    
    33   16   17 1    
    34   17   18 1    
    35   17   81 1    
    36   17   82 1    
    37   18   19 1    
    38   18   22 1    
    39   18   83 1    
    40   19   20 am   BACKBONE|DICT|INTERRES
    41   19   21 2    
    42   20   84 1    
    43   20   85 1    
    44   22   23 am   BACKBONE|DICT|INTERRES
    45   22   86 1    
    46   23   24 2    
    47   23   25 1    
    48   25   26 1    
    49   25   27 1    
    50   25   87 1    
    51   26   88 1    
    52   26   89 1    
    53   26   90 1    
    54   27   28 am   BACKBONE|DICT|INTERRES
    55   27   91 1    
    56   28   29 2    
    57   28   30 1    
    58   30   31 1    
    59   30   32 1    
    60   30   92 1    
    61   31   93 1    
    62   31   94 1    
    63   31   95 1    
    64   32   33 am   BACKBONE|DICT|INTERRES
    65   32   96 1    
    66   33   34 2    
    67   33   35 1    
    68   35   36 1    
    69   35   37 1    
    70   35   97 1    
    71   36   98 1    
    72   36   99 1    
    73   36  100 1    
    74   37   38 am   BACKBONE|DICT|INTERRES
    75   37  101 1    
    76   38   39 2    
    77   38   40 1    
    78   40   41 1    
    79   40   42 1    
    80   40  102 1    
    81   41  103 1    
    82   41  104 1    
    83   41  105 1    
    84   42   43 am   BACKBONE|DICT|INTERRES
    85   42  106 1    
    86   43   44 2    
    87   43   45 1    
    88   45   46 1    
    89   45   49 1    
    90   45  107 1    
    91   46   47 1    
    92   46  108 1    
    93   46  109 1    
    94   47   48 1    
    95   48  110 1    
    96   48  111 1    
    97   49   50 am   BACKBONE|DICT|INTERRES
    98   49  112 1    
    99   50   51 2    
   100   50   52 1    
   101   52   53 1    
   102   52   54 1    
   103   52  113 1    
   104   53  114 1    
   105   53  115 1    
   106   53  116 1    
   107   54   55 am   BACKBONE|DICT|INTERRES
   108   54  117 1    
   109   55   56 2    
   110   55   57 1    
   111   57   58 1    
   112   57   59 1    
   113   57  118 1    
   114   58  119 1    
   115   58  120 1    
   116   58  121 1    
   117   59   60 am   BACKBONE|DICT|INTERRES
   118   59  122 1    
   119   60   61 2    
   120   60   62 1    
   121   62   63 1    
   122   62   64 1    
   123   62  123 1    
   124   63  124 1    
   125   63  125 1    
   126   63  126 1    
   127   64   65 am   BACKBONE|DICT|INTERRES
   128   64  127 1    
   129   65   66 2    
@<TRIPOS>SUBSTRUCTURE
     1 UNK         1 GROUP             0       ****    0 ROOT    
