@<TRIPOS>MOLECULE
3R135
127   129    1
SMALL
USER_CHARGES


@<TRIPOS>ATOM
      1 CA        -84.9223   24.6713  -71.8116 C.3       0 UNK        -0.1998 
      2 C         -84.3459   26.0385  -72.1479 C.2       0 UNK         0.4909 
      3 O         -85.0801   27.0273  -72.1650 O.2       0 UNK        -0.5240 
      4 N         -83.0404   26.1006  -72.4208 N.am      1 UNK        -0.4739 
      5 CA        -82.3003   27.3094  -72.7785 C.3       1 UNK         0.0864 
      6 C6        -81.9843   28.2225  -71.5582 C.3       11 UNK        -0.0881 
      7 S7        -81.1560   27.3799  -70.1614 S.3       11 UNK        -0.2682 
      8 C8        -79.8632   28.5785  -69.6913 C.3       11 UNK         0.0289 
      9 C9        -78.7125   28.6240  -70.6883 C.ar      11 UNK        -0.0687 
     10 C10       -77.9606   27.4750  -70.9405 C.ar      11 UNK        -0.0823 
     11 C11       -76.9169   27.4949  -71.8693 C.ar      11 UNK        -0.0830 
     12 C12       -76.6007   28.6917  -72.5190 C.ar      11 UNK        -0.1021 
     13 C13       -77.3208   29.8664  -72.2530 C.ar      11 UNK        -0.0753 
     14 C14       -78.3823   29.8146  -71.3424 C.ar      11 UNK        -0.0933 
     15 C15       -77.0147   31.2119  -72.9206 C.3       11 UNK         0.0166 
     16 S16       -75.6343   31.2280  -74.1184 S.3       11 UNK        -0.2615 
     17 C17       -74.1991   31.2507  -72.9904 C.3       11 UNK        -0.0865 
     18 CA        -72.8730   31.5931  -73.7181 C.3       10 UNK         0.0862 
     19 C         -71.7215   31.8112  -72.6904 C.2       10 UNK         0.5551 
     20 N         -70.6646   31.0072  -72.6769 N.am      10 UNK        -0.7319 
     21 O         -71.7898   32.7389  -71.8879 O.2       10 UNK        -0.5018 
     22 N         -72.5706   30.6223  -74.7827 N.am      10 UNK        -0.4509 
     23 C         -71.7069   30.8281  -75.7852 C.2       10 UNK         0.4899 
     24 O         -71.1465   31.9065  -75.9895 O.2       10 UNK        -0.4839 
     25 CA        -71.4146   29.6234  -76.7071 C.3       9 UNK         0.0222 
     26 CB        -70.0570   29.7510  -77.4292 C.3       9 UNK        -0.1966 
     27 N         -71.5093   28.3136  -76.0445 N.am      9 UNK        -0.4218 
     28 C         -70.8530   27.9073  -74.9429 C.2       9 UNK         0.5020 
     29 O         -70.0958   28.6275  -74.2908 O.2       9 UNK        -0.5274 
     30 CA        -71.0978   26.4658  -74.4593 C.3       8 UNK         0.0270 
     31 CB        -72.1143   26.4642  -73.3053 C.3       8 UNK        -0.1976 
     32 N         -71.5617   25.5693  -75.5221 N.am      8 UNK        -0.4313 
     33 C         -70.7948   25.1482  -76.5412 C.2       8 UNK         0.5041 
     34 O         -69.5903   25.3915  -76.6278 O.2       8 UNK        -0.5577 
     35 CA        -71.4673   24.3382  -77.6686 C.3       7 UNK         0.0284 
     36 CB        -71.1425   22.8426  -77.5209 C.3       7 UNK        -0.1958 
     37 N         -72.9210   24.5043  -77.7528 N.am      7 UNK        -0.4454 
     38 C         -73.5683   25.6568  -77.9755 C.2       7 UNK         0.5089 
     39 O         -73.0047   26.7303  -78.1912 O.2       7 UNK        -0.5125 
     40 CA        -75.1032   25.6176  -77.8679 C.3       6 UNK         0.0408 
     41 CB        -75.7401   25.4565  -79.2565 C.3       6 UNK        -0.1791 
     42 N         -75.6345   24.5840  -76.9677 N.am      6 UNK        -0.4762 
     43 C         -75.3403   24.4548  -75.6641 C.2       6 UNK         0.5007 
     44 O         -74.4560   25.1068  -75.1060 O.2       6 UNK        -0.5032 
     45 CA        -76.1500   23.4130  -74.8688 C.3       5 UNK         0.0783 
     46 C46       -76.1028   23.6162  -73.3254 C.3       11 UNK        -0.0857 
     47 S47       -77.2626   24.8938  -72.7240 S.3       11 UNK        -0.2512 
     48 C48       -76.1433   26.2206  -72.1823 C.3       11 UNK         0.0225 
     49 N         -77.5238   23.3123  -75.3752 N.am      5 UNK        -0.4615 
     50 C         -78.2872   22.2193  -75.2543 C.2       4 UNK         0.5053 
     51 O         -77.8402   21.1210  -74.9206 O.2       4 UNK        -0.5105 
     52 CA        -79.8040   22.3566  -75.4922 C.3       4 UNK         0.0263 
     53 CB        -80.5679   22.1490  -74.1730 C.3       4 UNK        -0.1981 
     54 N         -80.1938   23.6528  -76.0483 N.am      4 UNK        -0.4224 
     55 C         -80.1811   23.9550  -77.3539 C.2       3 UNK         0.4895 
     56 O         -79.8666   23.1559  -78.2363 O.2       3 UNK        -0.5091 
     57 CA        -80.5720   25.3926  -77.7516 C.3       3 UNK         0.0250 
     58 CB        -82.0365   25.4396  -78.2166 C.3       3 UNK        -0.1996 
     59 N         -80.3721   26.3926  -76.6963 N.am      3 UNK        -0.4254 
     60 C         -79.1950   26.6760  -76.1209 C.2       2 UNK         0.5004 
     61 O         -78.1445   26.1163  -76.4218 O.2       2 UNK        -0.5226 
     62 CA        -79.1817   27.7333  -75.0069 C.3       2 UNK         0.0269 
     63 CB        -78.7867   29.0974  -75.5924 C.3       2 UNK        -0.1926 
     64 N         -80.4384   27.8735  -74.2613 N.am      2 UNK        -0.4687 
     65 C         -81.0498   26.8971  -73.5747 C.2       1 UNK         0.5165 
     66 O         -80.6843   25.7168  -73.5811 O.2       1 UNK        -0.5079 
     67 H67       -84.1615   23.8912  -71.8388 H         1 UNK         0.0900 
     68 H68       -85.7042   24.4077  -72.5232 H         1 UNK         0.0900 
     69 H69       -85.3589   24.6840  -70.8133 H         1 UNK         0.0900 
     70 H70       -82.4683   25.2646  -72.4361 H         1 UNK         0.2959 
     71 H71       -82.9228   27.8787  -73.4728 H         1 UNK         0.1079 
     72 H72       -82.9161   28.6412  -71.1753 H         1 UNK         0.0837 
     73 H73       -81.3920   29.0843  -71.8704 H         1 UNK         0.0837 
     74 H74       -79.4664   28.2973  -68.7149 H         1 UNK         0.0685 
     75 H75       -80.3158   29.5633  -69.5652 H         1 UNK         0.0685 
     76 H76       -78.2111   26.5520  -70.4352 H         1 UNK         0.1434 
     77 H77       -75.7954   28.6912  -73.2382 H         1 UNK         0.1329 
     78 H78       -78.9528   30.7108  -71.1391 H         1 UNK         0.1335 
     79 H79       -76.8193   31.9563  -72.1475 H         1 UNK         0.0680 
     80 H80       -77.9103   31.5521  -73.4414 H         1 UNK         0.0680 
     81 H81       -74.3993   31.9861  -72.2085 H         1 UNK         0.1032 
     82 H82       -74.1205   30.2867  -72.4851 H         1 UNK         0.1032 
     83 H83       -73.0151   32.5611  -74.2030 H         1 UNK         0.0461 
     84 H84       -69.9327   31.1727  -72.0051 H         1 UNK         0.3453 
     85 H85       -70.5771   30.2359  -73.3322 H         1 UNK         0.3453 
     86 H86       -72.9954   29.7124  -74.6918 H         1 UNK         0.2984 
     87 H87       -72.1954   29.6313  -77.4689 H         1 UNK         0.0554 
     88 H88       -69.8812   28.9053  -78.0942 H         1 UNK         0.0847 
     89 H89       -69.2283   29.7988  -76.7217 H         1 UNK         0.0847 
     90 H90       -70.0176   30.6539  -78.0398 H         1 UNK         0.0847 
     91 H91       -72.0979   27.6388  -76.5222 H         1 UNK         0.3141 
     92 H92       -70.1495   26.0797  -74.0795 H         1 UNK         0.0743 
     93 H93       -71.7503   27.0560  -72.4643 H         1 UNK         0.0784 
     94 H94       -73.0706   26.8896  -73.6112 H         1 UNK         0.0784 
     95 H95       -72.2988   25.4550  -72.9367 H         1 UNK         0.0784 
     96 H96       -72.5484   25.3218  -75.5060 H         1 UNK         0.3213 
     97 H97       -71.0436   24.6908  -78.6113 H         1 UNK         0.0855 
     98 H98       -71.5625   22.4270  -76.6040 H         1 UNK         0.0814 
     99 H99       -70.0643   22.6787  -77.4881 H         1 UNK         0.0814 
    100 H100      -71.5290   22.2659  -78.3614 H         1 UNK         0.0814 
    101 H101      -73.4828   23.6851  -77.5727 H         1 UNK         0.3105 
    102 H102      -75.4186   26.5815  -77.4629 H         1 UNK         0.0547 
    103 H103      -75.5015   24.4898  -79.7014 H         1 UNK         0.0837 
    104 H104      -76.8256   25.5465  -79.2055 H         1 UNK         0.0837 
    105 H105      -75.3853   26.2282  -79.9412 H         1 UNK         0.0837 
    106 H106      -76.3782   24.0096  -77.3379 H         1 UNK         0.3020 
    107 H107      -75.6424   22.4695  -75.0821 H         1 UNK         0.1245 
    108 H108      -75.0908   23.8238  -72.9728 H         1 UNK         0.0781 
    109 H109      -76.3852   22.6817  -72.8384 H         1 UNK         0.0781 
    110 H110      -75.4046   26.4026  -72.9633 H         1 UNK         0.0836 
    111 H111      -75.5947   25.8983  -71.2965 H         1 UNK         0.0836 
    112 H112      -77.9411   24.1910  -75.6672 H         1 UNK         0.3022 
    113 H113      -80.0993   21.5648  -76.1840 H         1 UNK         0.0747 
    114 H114      -81.6461   22.2016  -74.3249 H         1 UNK         0.0793 
    115 H115      -80.3498   21.1709  -73.7421 H         1 UNK         0.0793 
    116 H116      -80.2961   22.9005  -73.4299 H         1 UNK         0.0793 
    117 H117      -80.4346   24.3767  -75.3803 H         1 UNK         0.3047 
    118 H118      -79.9352   25.6754  -78.5926 H         1 UNK         0.0822 
    119 H119      -82.2138   24.7259  -79.0226 H         1 UNK         0.0807 
    120 H120      -82.3018   26.4261  -78.5975 H         1 UNK         0.0807 
    121 H121      -82.7249   25.1941  -77.4068 H         1 UNK         0.0807 
    122 H122      -81.1876   26.8988  -76.3839 H         1 UNK         0.2946 
    123 H123      -78.4174   27.4249  -74.2917 H         1 UNK         0.1144 
    124 H124      -77.8001   29.0509  -76.0562 H         1 UNK         0.0793 
    125 H125      -78.7428   29.8628  -74.8207 H         1 UNK         0.0793 
    126 H126      -79.4926   29.4313  -76.3538 H         1 UNK         0.0793 
    127 H127      -80.8201   28.8072  -74.2147 H         1 UNK         0.2896 
@<TRIPOS>BOND
     1    1    2 1    
     2    1   67 1    
     3    1   68 1    
     4    1   69 1    
     5    2    3 2    
     6    2    4 am   BACKBONE|DICT|INTERRES
     7    4    5 1    
     8    4   70 1    
     9    5    6 1    
    10    5   65 1    
    11    5   71 1    
    12    6    7 1    
    13    6   72 1    
    14    6   73 1    
    15    7    8 1    
    16    8    9 1    
    17    8   74 1    
    18    8   75 1    
    19    9   10 ar   
    20    9   14 ar   
    21   10   11 ar   
    22   10   76 1    
    23   11   12 ar   
    24   11   48 1    
    25   12   13 ar   
    26   12   77 1    
    27   13   14 ar   
    28   13   15 1    
    29   14   78 1    
    30   15   16 1    
    31   15   79 1    
    32   15   80 1    
    33   16   17 1    
    34   17   18 1    
    35   17   81 1    
    36   17   82 1    
    37   18   19 1    
    38   18   22 1    
    39   18   83 1    
    40   19   20 am   BACKBONE|DICT|INTERRES
    41   19   21 2    
    42   20   84 1    
    43   20   85 1    
    44   22   23 am   BACKBONE|DICT|INTERRES
    45   22   86 1    
    46   23   24 2    
    47   23   25 1    
    48   25   26 1    
    49   25   27 1    
    50   25   87 1    
    51   26   88 1    
    52   26   89 1    
    53   26   90 1    
    54   27   28 am   BACKBONE|DICT|INTERRES
    55   27   91 1    
    56   28   29 2    
    57   28   30 1    
    58   30   31 1    
    59   30   32 1    
    60   30   92 1    
    61   31   93 1    
    62   31   94 1    
    63   31   95 1    
    64   32   33 am   BACKBONE|DICT|INTERRES
    65   32   96 1    
    66   33   34 2    
    67   33   35 1    
    68   35   36 1    
    69   35   37 1    
    70   35   97 1    
    71   36   98 1    
    72   36   99 1    
    73   36  100 1    
    74   37   38 am   BACKBONE|DICT|INTERRES
    75   37  101 1    
    76   38   39 2    
    77   38   40 1    
    78   40   41 1    
    79   40   42 1    
    80   40  102 1    
    81   41  103 1    
    82   41  104 1    
    83   41  105 1    
    84   42   43 am   BACKBONE|DICT|INTERRES
    85   42  106 1    
    86   43   44 2    
    87   43   45 1    
    88   45   46 1    
    89   45   49 1    
    90   45  107 1    
    91   46   47 1    
    92   46  108 1    
    93   46  109 1    
    94   47   48 1    
    95   48  110 1    
    96   48  111 1    
    97   49   50 am   BACKBONE|DICT|INTERRES
    98   49  112 1    
    99   50   51 2    
   100   50   52 1    
   101   52   53 1    
   102   52   54 1    
   103   52  113 1    
   104   53  114 1    
   105   53  115 1    
   106   53  116 1    
   107   54   55 am   BACKBONE|DICT|INTERRES
   108   54  117 1    
   109   55   56 2    
   110   55   57 1    
   111   57   58 1    
   112   57   59 1    
   113   57  118 1    
   114   58  119 1    
   115   58  120 1    
   116   58  121 1    
   117   59   60 am   BACKBONE|DICT|INTERRES
   118   59  122 1    
   119   60   61 2    
   120   60   62 1    
   121   62   63 1    
   122   62   64 1    
   123   62  123 1    
   124   63  124 1    
   125   63  125 1    
   126   63  126 1    
   127   64   65 am   BACKBONE|DICT|INTERRES
   128   64  127 1    
   129   65   66 2    
@<TRIPOS>SUBSTRUCTURE
     1 UNK         1 GROUP             0       ****    0 ROOT    
