@<TRIPOS>MOLECULE
3R135
127   129    1
SMALL
USER_CHARGES


@<TRIPOS>ATOM
      1 CA        -80.7385   21.5008  -72.7977 C.3       0 UNK        -0.1998 
      2 C         -80.8065   23.0196  -72.7681 C.2       0 UNK         0.4909 
      3 O         -79.9201   23.6789  -73.3114 O.2       0 UNK        -0.5240 
      4 N         -81.8541   23.5798  -72.1447 N.am      1 UNK        -0.4739 
      5 CA        -82.1141   25.0220  -72.0317 C.3       1 UNK         0.0864 
      6 C6        -81.0831   25.7184  -71.0945 C.3       11 UNK        -0.0881 
      7 S7        -81.7095   27.2792  -70.3862 S.3       11 UNK        -0.2682 
      8 C8        -80.2372   27.9019  -69.5060 C.3       11 UNK         0.0289 
      9 C9        -79.0521   28.1712  -70.4282 C.ar      11 UNK        -0.0687 
     10 C10       -79.2038   28.9559  -71.5743 C.ar      11 UNK        -0.0823 
     11 C11       -78.1262   29.1912  -72.4319 C.ar      11 UNK        -0.0830 
     12 C12       -76.8766   28.6381  -72.1178 C.ar      11 UNK        -0.1021 
     13 C13       -76.6950   27.8728  -70.9575 C.ar      11 UNK        -0.0753 
     14 C14       -77.7941   27.6441  -70.1239 C.ar      11 UNK        -0.0933 
     15 C15       -75.3518   27.2515  -70.5596 C.3       11 UNK         0.0166 
     16 S16       -74.0043   27.3536  -71.7925 S.3       11 UNK        -0.2615 
     17 C17       -73.3075   29.0091  -71.4651 C.3       11 UNK        -0.0865 
     18 CA        -73.1652   29.8970  -72.7303 C.3       10 UNK         0.0862 
     19 C         -72.6231   31.3019  -72.3307 C.2       10 UNK         0.5551 
     20 N         -71.3944   31.6653  -72.6787 N.am      10 UNK        -0.7319 
     21 O         -73.3315   32.0720  -71.6874 O.2       10 UNK        -0.5018 
     22 N         -72.4169   29.2154  -73.8024 N.am      10 UNK        -0.4509 
     23 C         -72.3112   29.6379  -75.0675 C.2       10 UNK         0.4899 
     24 O         -72.8376   30.6698  -75.4827 O.2       10 UNK        -0.4839 
     25 CA        -71.4924   28.7776  -76.0506 C.3       9 UNK         0.0222 
     26 CB        -70.0005   29.1642  -76.0077 C.3       9 UNK        -0.1966 
     27 N         -71.6811   27.3224  -75.9277 N.am      9 UNK        -0.4218 
     28 C         -71.3149   26.5076  -74.9269 C.2       9 UNK         0.5020 
     29 O         -70.7594   26.9018  -73.8997 O.2       9 UNK        -0.5274 
     30 CA        -71.6081   25.0056  -75.0930 C.3       8 UNK         0.0270 
     31 CB        -72.0282   24.3519  -73.7620 C.3       8 UNK        -0.1976 
     32 N         -72.6469   24.7435  -76.0947 N.am      8 UNK        -0.4313 
     33 C         -72.5616   23.8283  -77.0686 C.2       8 UNK         0.5041 
     34 O         -71.5424   23.1785  -77.3072 O.2       8 UNK        -0.5577 
     35 CA        -73.8233   23.5556  -77.9069 C.3       7 UNK         0.0284 
     36 CB        -74.7035   22.4967  -77.2238 C.3       7 UNK        -0.1958 
     37 N         -74.6303   24.7425  -78.1990 N.am      7 UNK        -0.4454 
     38 C         -74.2895   25.6831  -79.0911 C.2       7 UNK         0.5089 
     39 O         -73.2112   25.7092  -79.6843 O.2       7 UNK        -0.5125 
     40 CA        -75.3326   26.7754  -79.3737 C.3       6 UNK         0.0408 
     41 CB        -76.4488   26.2501  -80.2916 C.3       6 UNK        -0.1791 
     42 N         -75.9056   27.2810  -78.1263 N.am      6 UNK        -0.4762 
     43 C         -75.3509   28.2672  -77.4074 C.2       6 UNK         0.5007 
     44 O         -74.3859   28.9202  -77.8018 O.2       6 UNK        -0.5032 
     45 CA        -75.9403   28.5769  -76.0137 C.3       5 UNK         0.0783 
     46 C46       -76.8320   29.8425  -76.0639 C.3       11 UNK        -0.0857 
     47 S47       -76.8816   30.7263  -74.4703 S.3       11 UNK        -0.2512 
     48 C48       -78.3746   30.0325  -73.6851 C.3       11 UNK         0.0225 
     49 N         -76.6219   27.4148  -75.4224 N.am      5 UNK        -0.4615 
     50 C         -75.9671   26.3167  -75.0123 C.2       4 UNK         0.5053 
     51 O         -74.7439   26.2145  -75.0612 O.2       4 UNK        -0.5105 
     52 CA        -76.7800   25.0925  -74.5488 C.3       4 UNK         0.0263 
     53 CB        -76.9415   25.0751  -73.0249 C.3       4 UNK        -0.1981 
     54 N         -78.0930   24.9572  -75.1763 N.am      4 UNK        -0.4224 
     55 C         -78.3140   24.8733  -76.4944 C.2       3 UNK         0.4895 
     56 O         -77.4141   24.8497  -77.3349 O.2       3 UNK        -0.5091 
     57 CA        -79.7811   24.8719  -76.9557 C.3       3 UNK         0.0250 
     58 CB        -80.3172   23.4343  -77.0352 C.3       3 UNK        -0.1996 
     59 N         -80.6662   25.6766  -76.1053 N.am      3 UNK        -0.4254 
     60 C         -80.5365   26.9869  -75.8528 C.2       2 UNK         0.5004 
     61 O         -79.6367   27.6839  -76.3215 O.2       2 UNK        -0.5226 
     62 CA        -81.5439   27.6246  -74.8782 C.3       2 UNK         0.0269 
     63 CB        -82.8919   27.9161  -75.5662 C.3       2 UNK        -0.1926 
     64 N         -81.7054   26.8690  -73.6266 N.am      2 UNK        -0.4687 
     65 C         -82.2615   25.6642  -73.4355 C.2       1 UNK         0.5165 
     66 O         -82.8422   25.0377  -74.3264 O.2       1 UNK        -0.5079 
     67 H67       -80.7454   21.1471  -73.8283 H         1 UNK         0.0900 
     68 H68       -79.8176   21.1591  -72.3261 H         1 UNK         0.0900 
     69 H69       -81.5785   21.0440  -72.2750 H         1 UNK         0.0900 
     70 H70       -82.5678   22.9821  -71.7513 H         1 UNK         0.2959 
     71 H71       -83.0991   25.1034  -71.5690 H         1 UNK         0.1079 
     72 H72       -80.8529   25.0637  -70.2522 H         1 UNK         0.0837 
     73 H73       -80.1312   25.8808  -71.6040 H         1 UNK         0.0837 
     74 H74       -80.5000   28.8288  -68.9947 H         1 UNK         0.0685 
     75 H75       -79.9693   27.1856  -68.7277 H         1 UNK         0.0685 
     76 H76       -80.1725   29.3792  -71.8026 H         1 UNK         0.1434 
     77 H77       -76.0453   28.7966  -72.7848 H         1 UNK         0.1329 
     78 H78       -77.6680   27.0452  -69.2320 H         1 UNK         0.1335 
     79 H79       -75.5150   26.1940  -70.3474 H         1 UNK         0.0680 
     80 H80       -75.0153   27.6952  -69.6217 H         1 UNK         0.0680 
     81 H81       -72.3343   28.8711  -70.9902 H         1 UNK         0.1032 
     82 H82       -73.9327   29.5151  -70.7268 H         1 UNK         0.1032 
     83 H83       -74.1670   30.0715  -73.1239 H         1 UNK         0.0461 
     84 H84       -71.0535   32.5765  -72.4158 H         1 UNK         0.3453 
     85 H85       -70.8093   31.0376  -73.2058 H         1 UNK         0.3453 
     86 H86       -71.9361   28.3562  -73.5497 H         1 UNK         0.2984 
     87 H87       -71.8513   29.0262  -77.0500 H         1 UNK         0.0554 
     88 H88       -69.8697   30.2272  -76.2147 H         1 UNK         0.0847 
     89 H89       -69.4271   28.6167  -76.7557 H         1 UNK         0.0847 
     90 H90       -69.5527   28.9689  -75.0330 H         1 UNK         0.0847 
     91 H91       -72.1540   26.8895  -76.7086 H         1 UNK         0.3141 
     92 H92       -70.6637   24.5564  -75.4060 H         1 UNK         0.0743 
     93 H93       -72.9456   24.7954  -73.3724 H         1 UNK         0.0784 
     94 H94       -72.1980   23.2819  -73.8820 H         1 UNK         0.0784 
     95 H95       -71.2574   24.4719  -72.9997 H         1 UNK         0.0784 
     96 H96       -73.5273   25.2341  -75.9317 H         1 UNK         0.3213 
     97 H97       -73.4915   23.1405  -78.8615 H         1 UNK         0.0855 
     98 H98       -75.0568   22.8311  -76.2493 H         1 UNK         0.0814 
     99 H99       -74.1471   21.5717  -77.0664 H         1 UNK         0.0814 
    100 H100      -75.5753   22.2510  -77.8307 H         1 UNK         0.0814 
    101 H101      -75.5603   24.7832  -77.7889 H         1 UNK         0.3105 
    102 H102      -74.8335   27.5888  -79.9049 H         1 UNK         0.0547 
    103 H103      -77.1781   27.0294  -80.5126 H         1 UNK         0.0837 
    104 H104      -76.9834   25.4073  -79.8535 H         1 UNK         0.0837 
    105 H105      -76.0387   25.9119  -81.2439 H         1 UNK         0.0837 
    106 H106      -76.6717   26.7490  -77.7288 H         1 UNK         0.3020 
    107 H107      -75.0796   28.8005  -75.3801 H         1 UNK         0.1245 
    108 H108      -77.8375   29.6118  -76.4171 H         1 UNK         0.0781 
    109 H109      -76.4357   30.5667  -76.7791 H         1 UNK         0.0781 
    110 H110      -78.9242   29.4277  -74.4035 H         1 UNK         0.0836 
    111 H111      -79.0268   30.8693  -73.4305 H         1 UNK         0.0836 
    112 H112      -77.6345   27.4279  -75.4219 H         1 UNK         0.3022 
    113 H113      -76.2032   24.2096  -74.8246 H         1 UNK         0.0747 
    114 H114      -77.3465   24.1240  -72.6803 H         1 UNK         0.0793 
    115 H115      -75.9794   25.2083  -72.5314 H         1 UNK         0.0793 
    116 H116      -77.6101   25.8651  -72.6838 H         1 UNK         0.0793 
    117 H117      -78.8848   24.8510  -74.5482 H         1 UNK         0.3047 
    118 H118      -79.8060   25.3061  -77.9571 H         1 UNK         0.0822 
    119 H119      -81.3257   23.4091  -77.4483 H         1 UNK         0.0807 
    120 H120      -80.3447   22.9599  -76.0534 H         1 UNK         0.0807 
    121 H121      -79.6879   22.8179  -77.6788 H         1 UNK         0.0807 
    122 H122      -81.4300   25.1927  -75.6417 H         1 UNK         0.2946 
    123 H123      -81.1258   28.5882  -74.5852 H         1 UNK         0.1144 
    124 H124      -83.3685   27.0122  -75.9460 H         1 UNK         0.0793 
    125 H125      -82.7535   28.5856  -76.4162 H         1 UNK         0.0793 
    126 H126      -83.5887   28.4009  -74.8826 H         1 UNK         0.0793 
    127 H127      -81.2683   27.2869  -72.8151 H         1 UNK         0.2896 
@<TRIPOS>BOND
     1    1    2 1    
     2    1   67 1    
     3    1   68 1    
     4    1   69 1    
     5    2    3 2    
     6    2    4 am   BACKBONE|DICT|INTERRES
     7    4    5 1    
     8    4   70 1    
     9    5    6 1    
    10    5   65 1    
    11    5   71 1    
    12    6    7 1    
    13    6   72 1    
    14    6   73 1    
    15    7    8 1    
    16    8    9 1    
    17    8   74 1    
    18    8   75 1    
    19    9   10 ar   
    20    9   14 ar   
    21   10   11 ar   
    22   10   76 1    
    23   11   12 ar   
    24   11   48 1    
    25   12   13 ar   
    26   12   77 1    
    27   13   14 ar   
    28   13   15 1    
    29   14   78 1    
    30   15   16 1    
    31   15   79 1    
    32   15   80 1    
    33   16   17 1    
    34   17   18 1    
    35   17   81 1    
    36   17   82 1    
    37   18   19 1    
    38   18   22 1    
    39   18   83 1    
    40   19   20 am   BACKBONE|DICT|INTERRES
    41   19   21 2    
    42   20   84 1    
    43   20   85 1    
    44   22   23 am   BACKBONE|DICT|INTERRES
    45   22   86 1    
    46   23   24 2    
    47   23   25 1    
    48   25   26 1    
    49   25   27 1    
    50   25   87 1    
    51   26   88 1    
    52   26   89 1    
    53   26   90 1    
    54   27   28 am   BACKBONE|DICT|INTERRES
    55   27   91 1    
    56   28   29 2    
    57   28   30 1    
    58   30   31 1    
    59   30   32 1    
    60   30   92 1    
    61   31   93 1    
    62   31   94 1    
    63   31   95 1    
    64   32   33 am   BACKBONE|DICT|INTERRES
    65   32   96 1    
    66   33   34 2    
    67   33   35 1    
    68   35   36 1    
    69   35   37 1    
    70   35   97 1    
    71   36   98 1    
    72   36   99 1    
    73   36  100 1    
    74   37   38 am   BACKBONE|DICT|INTERRES
    75   37  101 1    
    76   38   39 2    
    77   38   40 1    
    78   40   41 1    
    79   40   42 1    
    80   40  102 1    
    81   41  103 1    
    82   41  104 1    
    83   41  105 1    
    84   42   43 am   BACKBONE|DICT|INTERRES
    85   42  106 1    
    86   43   44 2    
    87   43   45 1    
    88   45   46 1    
    89   45   49 1    
    90   45  107 1    
    91   46   47 1    
    92   46  108 1    
    93   46  109 1    
    94   47   48 1    
    95   48  110 1    
    96   48  111 1    
    97   49   50 am   BACKBONE|DICT|INTERRES
    98   49  112 1    
    99   50   51 2    
   100   50   52 1    
   101   52   53 1    
   102   52   54 1    
   103   52  113 1    
   104   53  114 1    
   105   53  115 1    
   106   53  116 1    
   107   54   55 am   BACKBONE|DICT|INTERRES
   108   54  117 1    
   109   55   56 2    
   110   55   57 1    
   111   57   58 1    
   112   57   59 1    
   113   57  118 1    
   114   58  119 1    
   115   58  120 1    
   116   58  121 1    
   117   59   60 am   BACKBONE|DICT|INTERRES
   118   59  122 1    
   119   60   61 2    
   120   60   62 1    
   121   62   63 1    
   122   62   64 1    
   123   62  123 1    
   124   63  124 1    
   125   63  125 1    
   126   63  126 1    
   127   64   65 am   BACKBONE|DICT|INTERRES
   128   64  127 1    
   129   65   66 2    
@<TRIPOS>SUBSTRUCTURE
     1 UNK         1 GROUP             0       ****    0 ROOT    
