@<TRIPOS>MOLECULE
3R135
127   129    1
SMALL
USER_CHARGES


@<TRIPOS>ATOM
      1 CA        -85.5613   24.0542  -70.7806 C.3       0 UNK        -0.1998 
      2 C         -84.6216   25.0076  -71.5037 C.2       0 UNK         0.4909 
      3 O         -85.0225   26.1213  -71.8447 O.2       0 UNK        -0.5240 
      4 N         -83.3720   24.5839  -71.7322 N.am      1 UNK        -0.4739 
      5 CA        -82.3611   25.3396  -72.4773 C.3       1 UNK         0.0864 
      6 C6        -80.9406   24.7844  -72.2019 C.3       11 UNK        -0.0881 
      7 S7        -79.6258   25.9465  -72.7041 S.3       11 UNK        -0.2682 
      8 C8        -79.0315   26.5320  -71.0850 C.3       11 UNK         0.0289 
      9 C9        -77.9789   27.6224  -71.2308 C.ar      11 UNK        -0.0687 
     10 C10       -78.3077   28.8201  -71.8675 C.ar      11 UNK        -0.0823 
     11 C11       -77.3640   29.8407  -72.0022 C.ar      11 UNK        -0.0830 
     12 C12       -76.0917   29.6784  -71.4443 C.ar      11 UNK        -0.1021 
     13 C13       -75.7464   28.4850  -70.7991 C.ar      11 UNK        -0.0753 
     14 C14       -76.6918   27.4558  -70.7083 C.ar      11 UNK        -0.0933 
     15 C15       -74.3756   28.3191  -70.1512 C.3       11 UNK         0.0166 
     16 S16       -73.0616   27.9155  -71.3504 S.3       11 UNK        -0.2615 
     17 C17       -72.5038   29.5728  -71.8868 C.3       11 UNK        -0.0865 
     18 CA        -72.9703   29.8923  -73.3319 C.3       10 UNK         0.0862 
     19 C         -72.9289   31.4026  -73.7083 C.2       10 UNK         0.5551 
     20 N         -73.2369   31.7425  -74.9537 N.am      10 UNK        -0.7319 
     21 O         -72.6328   32.2643  -72.8838 O.2       10 UNK        -0.5018 
     22 N         -72.3532   29.0171  -74.3437 N.am      10 UNK        -0.4509 
     23 C         -71.0852   29.0881  -74.7727 C.2       10 UNK         0.4899 
     24 O         -70.2417   29.8562  -74.3058 O.2       10 UNK        -0.4839 
     25 CA        -70.7069   28.1477  -75.9343 C.3       9 UNK         0.0222 
     26 CB        -69.1910   28.1202  -76.2258 C.3       9 UNK        -0.1966 
     27 N         -71.2313   26.7883  -75.7680 N.am      9 UNK        -0.4218 
     28 C         -70.9766   25.9328  -74.7630 C.2       9 UNK         0.5020 
     29 O         -70.1991   26.1736  -73.8382 O.2       9 UNK        -0.5274 
     30 CA        -71.7010   24.5738  -74.7866 C.3       8 UNK         0.0270 
     31 CB        -72.3486   24.2633  -73.4242 C.3       8 UNK        -0.1976 
     32 N         -72.7279   24.5261  -75.8327 N.am      8 UNK        -0.4313 
     33 C         -72.6182   23.8365  -76.9754 C.2       8 UNK         0.5041 
     34 O         -71.6623   23.1069  -77.2429 O.2       8 UNK        -0.5577 
     35 CA        -73.7435   23.9828  -78.0148 C.3       7 UNK         0.0284 
     36 CB        -74.7616   22.8378  -77.8844 C.3       7 UNK        -0.1958 
     37 N         -74.4463   25.2712  -78.0093 N.am      7 UNK        -0.4454 
     38 C         -73.8893   26.4452  -78.3436 C.2       7 UNK         0.5089 
     39 O         -72.6778   26.6102  -78.4831 O.2       7 UNK        -0.5125 
     40 CA        -74.8414   27.6314  -78.5607 C.3       6 UNK         0.0408 
     41 CB        -75.7118   27.4143  -79.8098 C.3       6 UNK        -0.1791 
     42 N         -75.6993   27.8186  -77.3953 N.am      6 UNK        -0.4762 
     43 C         -75.4631   28.6989  -76.4121 C.2       6 UNK         0.5007 
     44 O         -74.5694   29.5460  -76.4476 O.2       6 UNK        -0.5032 
     45 CA        -76.3320   28.5616  -75.1401 C.3       5 UNK         0.0783 
     46 C46       -77.5338   29.5417  -75.1468 C.3       11 UNK        -0.0857 
     47 S47       -77.0479   31.1591  -74.4432 S.3       11 UNK        -0.2512 
     48 C48       -77.7349   31.1129  -72.7526 C.3       11 UNK         0.0225 
     49 N         -76.7104   27.1734  -74.8520 N.am      5 UNK        -0.4615 
     50 C         -75.8222   26.1839  -74.6673 C.2       4 UNK         0.5053 
     51 O         -74.6033   26.3542  -74.6833 O.2       4 UNK        -0.5105 
     52 CA        -76.3577   24.7494  -74.5345 C.3       4 UNK         0.0263 
     53 CB        -76.3564   24.2989  -73.0658 C.3       4 UNK        -0.1981 
     54 N         -77.6784   24.5277  -75.1393 N.am      4 UNK        -0.4224 
     55 C         -77.9689   24.6945  -76.4400 C.2       3 UNK         0.4895 
     56 O         -77.1748   25.1461  -77.2674 O.2       3 UNK        -0.5091 
     57 CA        -79.3865   24.3275  -76.8849 C.3       3 UNK         0.0250 
     58 CB        -79.7545   22.8749  -76.5273 C.3       3 UNK        -0.1996 
     59 N         -80.3541   25.2577  -76.3057 N.am      3 UNK        -0.4254 
     60 C         -81.4775   25.6683  -76.9109 C.2       2 UNK         0.5004 
     61 O         -81.8138   25.3086  -78.0409 O.2       2 UNK        -0.5226 
     62 CA        -82.3713   26.6492  -76.1204 C.3       2 UNK         0.0269 
     63 CB        -83.8324   26.6688  -76.6204 C.3       2 UNK        -0.1926 
     64 N         -82.3158   26.4414  -74.6655 N.am      2 UNK        -0.4687 
     65 C         -82.6780   25.3398  -73.9887 C.2       1 UNK         0.5165 
     66 O         -83.1804   24.3395  -74.5079 O.2       1 UNK        -0.5079 
     67 H67       -85.0725   23.1138  -70.5268 H         1 UNK         0.0900 
     68 H68       -86.4231   23.8296  -71.4084 H         1 UNK         0.0900 
     69 H69       -85.9207   24.5091  -69.8579 H         1 UNK         0.0900 
     70 H70       -83.1098   23.6469  -71.4609 H         1 UNK         0.2959 
     71 H71       -82.4026   26.3708  -72.1176 H         1 UNK         0.1079 
     72 H72       -80.7850   23.8311  -72.7115 H         1 UNK         0.0837 
     73 H73       -80.8243   24.5694  -71.1383 H         1 UNK         0.0837 
     74 H74       -79.8723   26.9250  -70.5115 H         1 UNK         0.0685 
     75 H75       -78.6361   25.6849  -70.5224 H         1 UNK         0.0685 
     76 H76       -79.3015   28.9480  -72.2746 H         1 UNK         0.1434 
     77 H77       -75.3707   30.4804  -71.5177 H         1 UNK         0.1329 
     78 H78       -76.4326   26.5336  -70.2066 H         1 UNK         0.1335 
     79 H79       -74.4128   27.5160  -69.4136 H         1 UNK         0.0680 
     80 H80       -74.1163   29.2177  -69.5900 H         1 UNK         0.0680 
     81 H81       -72.8765   30.3178  -71.1827 H         1 UNK         0.1032 
     82 H82       -71.4162   29.6207  -71.8171 H         1 UNK         0.1032 
     83 H83       -74.0294   29.6646  -73.3545 H         1 UNK         0.0461 
     84 H84       -73.2228   32.7123  -75.2249 H         1 UNK         0.3453 
     85 H85       -73.5483   31.0323  -75.6088 H         1 UNK         0.3453 
     86 H86       -72.9727   28.3477  -74.7787 H         1 UNK         0.2984 
     87 H87       -71.2013   28.5521  -76.8190 H         1 UNK         0.0554 
     88 H88       -68.9612   27.4712  -77.0707 H         1 UNK         0.0847 
     89 H89       -68.6189   27.7689  -75.3666 H         1 UNK         0.0847 
     90 H90       -68.8231   29.1163  -76.4748 H         1 UNK         0.0847 
     91 H91       -71.8515   26.4783  -76.5075 H         1 UNK         0.3141 
     92 H92       -70.9375   23.8151  -74.9693 H         1 UNK         0.0743 
     93 H93       -73.0069   25.0673  -73.0948 H         1 UNK         0.0784 
     94 H94       -72.9294   23.3415  -73.4577 H         1 UNK         0.0784 
     95 H95       -71.5880   24.1388  -72.6526 H         1 UNK         0.0784 
     96 H96       -73.5321   25.1292  -75.6770 H         1 UNK         0.3213 
     97 H97       -73.2716   23.8885  -78.9954 H         1 UNK         0.0855 
     98 H98       -74.2674   21.8678  -77.9551 H         1 UNK         0.0814 
     99 H99       -75.5074   22.8776  -78.6785 H         1 UNK         0.0814 
    100 H100      -75.2880   22.8630  -76.9317 H         1 UNK         0.0814 
    101 H101      -75.4534   25.2331  -77.8621 H         1 UNK         0.3105 
    102 H102      -74.2339   28.5228  -78.7316 H         1 UNK         0.0547 
    103 H103      -76.3337   28.2864  -80.0115 H         1 UNK         0.0837 
    104 H104      -75.0929   27.2478  -80.6925 H         1 UNK         0.0837 
    105 H105      -76.3722   26.5523  -79.7061 H         1 UNK         0.0837 
    106 H106      -76.4227   27.1223  -77.2538 H         1 UNK         0.3020 
    107 H107      -75.6954   28.8254  -74.3005 H         1 UNK         0.1245 
    108 H108      -78.3719   29.1441  -74.5756 H         1 UNK         0.0781 
    109 H109      -77.9250   29.6942  -76.1547 H         1 UNK         0.0781 
    110 H110      -78.8190   31.2229  -72.8093 H         1 UNK         0.0836 
    111 H111      -77.3723   31.9809  -72.2001 H         1 UNK         0.0836 
    112 H112      -77.6944   26.9587  -74.8078 H         1 UNK         0.3022 
    113 H113      -75.6559   24.1065  -75.0658 H         1 UNK         0.0747 
    114 H114      -76.6988   23.2694  -72.9613 H         1 UNK         0.0793 
    115 H115      -76.9865   24.9306  -72.4438 H         1 UNK         0.0793 
    116 H116      -75.3508   24.3478  -72.6469 H         1 UNK         0.0793 
    117 H117      -78.3932   24.1695  -74.5226 H         1 UNK         0.3047 
    118 H118      -79.4011   24.4212  -77.9734 H         1 UNK         0.0822 
    119 H119      -78.9974   22.1773  -76.8886 H         1 UNK         0.0807 
    120 H120      -80.7012   22.5887  -76.9862 H         1 UNK         0.0807 
    121 H121      -79.8543   22.7274  -75.4516 H         1 UNK         0.0807 
    122 H122      -80.1474   25.6176  -75.3846 H         1 UNK         0.2946 
    123 H123      -81.9525   27.6401  -76.3047 H         1 UNK         0.1144 
    124 H124      -83.8841   26.9727  -77.6666 H         1 UNK         0.0793 
    125 H125      -84.3008   25.6870  -76.5457 H         1 UNK         0.0793 
    126 H126      -84.4377   27.3736  -76.0504 H         1 UNK         0.0793 
    127 H127      -81.8974   27.1972  -74.1397 H         1 UNK         0.2896 
@<TRIPOS>BOND
     1    1    2 1    
     2    1   67 1    
     3    1   68 1    
     4    1   69 1    
     5    2    3 2    
     6    2    4 am   BACKBONE|DICT|INTERRES
     7    4    5 1    
     8    4   70 1    
     9    5    6 1    
    10    5   65 1    
    11    5   71 1    
    12    6    7 1    
    13    6   72 1    
    14    6   73 1    
    15    7    8 1    
    16    8    9 1    
    17    8   74 1    
    18    8   75 1    
    19    9   10 ar   
    20    9   14 ar   
    21   10   11 ar   
    22   10   76 1    
    23   11   12 ar   
    24   11   48 1    
    25   12   13 ar   
    26   12   77 1    
    27   13   14 ar   
    28   13   15 1    
    29   14   78 1    
    30   15   16 1    
    31   15   79 1    
    32   15   80 1    
    33   16   17 1    
    34   17   18 1    
    35   17   81 1    
    36   17   82 1    
    37   18   19 1    
    38   18   22 1    
    39   18   83 1    
    40   19   20 am   BACKBONE|DICT|INTERRES
    41   19   21 2    
    42   20   84 1    
    43   20   85 1    
    44   22   23 am   BACKBONE|DICT|INTERRES
    45   22   86 1    
    46   23   24 2    
    47   23   25 1    
    48   25   26 1    
    49   25   27 1    
    50   25   87 1    
    51   26   88 1    
    52   26   89 1    
    53   26   90 1    
    54   27   28 am   BACKBONE|DICT|INTERRES
    55   27   91 1    
    56   28   29 2    
    57   28   30 1    
    58   30   31 1    
    59   30   32 1    
    60   30   92 1    
    61   31   93 1    
    62   31   94 1    
    63   31   95 1    
    64   32   33 am   BACKBONE|DICT|INTERRES
    65   32   96 1    
    66   33   34 2    
    67   33   35 1    
    68   35   36 1    
    69   35   37 1    
    70   35   97 1    
    71   36   98 1    
    72   36   99 1    
    73   36  100 1    
    74   37   38 am   BACKBONE|DICT|INTERRES
    75   37  101 1    
    76   38   39 2    
    77   38   40 1    
    78   40   41 1    
    79   40   42 1    
    80   40  102 1    
    81   41  103 1    
    82   41  104 1    
    83   41  105 1    
    84   42   43 am   BACKBONE|DICT|INTERRES
    85   42  106 1    
    86   43   44 2    
    87   43   45 1    
    88   45   46 1    
    89   45   49 1    
    90   45  107 1    
    91   46   47 1    
    92   46  108 1    
    93   46  109 1    
    94   47   48 1    
    95   48  110 1    
    96   48  111 1    
    97   49   50 am   BACKBONE|DICT|INTERRES
    98   49  112 1    
    99   50   51 2    
   100   50   52 1    
   101   52   53 1    
   102   52   54 1    
   103   52  113 1    
   104   53  114 1    
   105   53  115 1    
   106   53  116 1    
   107   54   55 am   BACKBONE|DICT|INTERRES
   108   54  117 1    
   109   55   56 2    
   110   55   57 1    
   111   57   58 1    
   112   57   59 1    
   113   57  118 1    
   114   58  119 1    
   115   58  120 1    
   116   58  121 1    
   117   59   60 am   BACKBONE|DICT|INTERRES
   118   59  122 1    
   119   60   61 2    
   120   60   62 1    
   121   62   63 1    
   122   62   64 1    
   123   62  123 1    
   124   63  124 1    
   125   63  125 1    
   126   63  126 1    
   127   64   65 am   BACKBONE|DICT|INTERRES
   128   64  127 1    
   129   65   66 2    
@<TRIPOS>SUBSTRUCTURE
     1 UNK         1 GROUP             0       ****    0 ROOT    
