@<TRIPOS>MOLECULE
3R135
127   129    1
SMALL
USER_CHARGES


@<TRIPOS>ATOM
      1 CA        -82.5454   27.3852  -70.5458 C.3       0 UNK        -0.1998 
      2 C         -82.0204   27.2051  -71.9613 C.2       0 UNK         0.4909 
      3 O         -81.1260   26.3884  -72.1756 O.2       0 UNK        -0.5240 
      4 N         -82.5801   27.9520  -72.9238 N.am      1 UNK        -0.4739 
      5 CA        -82.2373   28.0334  -74.3573 C.3       1 UNK         0.0864 
      6 C6        -80.7874   28.5073  -74.6490 C.3       11 UNK        -0.0881 
      7 S7        -80.3375   30.0714  -73.8229 S.3       11 UNK        -0.2682 
      8 C8        -78.5229   30.0644  -74.0373 C.3       11 UNK         0.0289 
      9 C9        -77.7472   29.4799  -72.8559 C.ar      11 UNK        -0.0687 
     10 C10       -78.2007   28.3539  -72.1602 C.ar      11 UNK        -0.0823 
     11 C11       -77.4763   27.8293  -71.0879 C.ar      11 UNK        -0.0830 
     12 C12       -76.2799   28.4403  -70.7037 C.ar      11 UNK        -0.1021 
     13 C13       -75.8068   29.5617  -71.3905 C.ar      11 UNK        -0.0753 
     14 C14       -76.5406   30.0717  -72.4668 C.ar      11 UNK        -0.0933 
     15 C15       -74.5067   30.2271  -70.9685 C.3       11 UNK         0.0166 
     16 S16       -73.0748   29.3402  -71.6495 S.3       11 UNK        -0.2615 
     17 C17       -71.8240   30.6693  -71.6887 C.3       11 UNK        -0.0865 
     18 CA        -71.8642   31.4724  -73.0151 C.3       10 UNK         0.0862 
     19 C         -70.8141   32.6151  -73.0071 C.2       10 UNK         0.5551 
     20 N         -71.1761   33.7835  -72.4954 N.am      10 UNK        -0.7319 
     21 O         -69.6679   32.4413  -73.4176 O.2       10 UNK        -0.5018 
     22 N         -71.7242   30.5875  -74.1770 N.am      10 UNK        -0.4509 
     23 C         -72.0367   30.8951  -75.4378 C.2       10 UNK         0.4899 
     24 O         -72.4846   31.9898  -75.7808 O.2       10 UNK        -0.4839 
     25 CA        -71.8634   29.7962  -76.5042 C.3       9 UNK         0.0222 
     26 CB        -70.5380   29.9724  -77.2710 C.3       9 UNK        -0.1966 
     27 N         -72.0303   28.4145  -76.0213 N.am      9 UNK        -0.4218 
     28 C         -71.2378   27.6992  -75.2040 C.2       9 UNK         0.5020 
     29 O         -70.2247   28.1553  -74.6725 O.2       9 UNK        -0.5274 
     30 CA        -71.6365   26.2418  -74.8916 C.3       8 UNK         0.0270 
     31 CB        -72.0349   26.0944  -73.4141 C.3       8 UNK        -0.1976 
     32 N         -72.7196   25.7335  -75.7381 N.am      8 UNK        -0.4313 
     33 C         -72.5735   25.3964  -77.0292 C.2       8 UNK         0.5041 
     34 O         -71.4841   25.3832  -77.6039 O.2       8 UNK        -0.5577 
     35 CA        -73.8382   25.0391  -77.8368 C.3       7 UNK         0.0284 
     36 CB        -73.9243   23.5173  -78.0400 C.3       7 UNK        -0.1958 
     37 N         -75.1000   25.5200  -77.2632 N.am      7 UNK        -0.4454 
     38 C         -75.4035   26.7951  -76.9779 C.2       7 UNK         0.5089 
     39 O         -74.6588   27.7456  -77.2197 O.2       7 UNK        -0.5125 
     40 CA        -76.7274   27.0459  -76.2322 C.3       6 UNK         0.0408 
     41 CB        -77.8631   27.3045  -77.2321 C.3       6 UNK        -0.1791 
     42 N         -77.1135   25.9600  -75.3228 N.am      6 UNK        -0.4762 
     43 C         -76.3695   25.5056  -74.3003 C.2       6 UNK         0.5007 
     44 O         -75.2540   25.9449  -74.0232 O.2       6 UNK        -0.5032 
     45 CA        -76.9268   24.3062  -73.5142 C.3       5 UNK         0.0783 
     46 C46       -77.9762   24.7220  -72.4512 C.3       11 UNK        -0.0857 
     47 S47       -77.1934   25.0750  -70.8396 S.3       11 UNK        -0.2512 
     48 C48       -78.0026   26.6220  -70.3263 C.3       11 UNK         0.0225 
     49 N         -77.4469   23.3005  -74.4432 N.am      5 UNK        -0.4615 
     50 C         -76.6979   22.3368  -74.9977 C.2       4 UNK         0.5053 
     51 O         -75.5102   22.1553  -74.7303 O.2       4 UNK        -0.5105 
     52 CA        -77.3744   21.4135  -76.0271 C.3       4 UNK         0.0263 
     53 CB        -77.8953   20.1397  -75.3424 C.3       4 UNK        -0.1981 
     54 N         -78.4707   22.0487  -76.7608 N.am      4 UNK        -0.4224 
     55 C         -78.3262   23.0706  -77.6159 C.2       3 UNK         0.4895 
     56 O         -77.2451   23.5877  -77.8936 O.2       3 UNK        -0.5091 
     57 CA        -79.6162   23.6465  -78.2238 C.3       3 UNK         0.0250 
     58 CB        -80.0151   22.8601  -79.4826 C.3       3 UNK        -0.1996 
     59 N         -80.7509   23.6951  -77.2925 N.am      3 UNK        -0.4254 
     60 C         -80.7460   24.3229  -76.1085 C.2       2 UNK         0.5004 
     61 O         -79.7478   24.8600  -75.6179 O.2       2 UNK        -0.5226 
     62 CA        -82.0619   24.3169  -75.3165 C.3       2 UNK         0.0269 
     63 CB        -82.0664   23.1646  -74.2997 C.3       2 UNK        -0.1926 
     64 N         -82.1991   25.5816  -74.6002 N.am      2 UNK        -0.4687 
     65 C         -82.5212   26.7490  -75.1668 C.2       1 UNK         0.5165 
     66 O         -82.9910   26.8425  -76.3020 O.2       1 UNK        -0.5079 
     67 H67       -83.3410   28.1283  -70.4958 H         1 UNK         0.0900 
     68 H68       -82.9372   26.4410  -70.1687 H         1 UNK         0.0900 
     69 H69       -81.7387   27.7069  -69.8877 H         1 UNK         0.0900 
     70 H70       -83.3296   28.5737  -72.6536 H         1 UNK         0.2959 
     71 H71       -82.9091   28.7921  -74.7629 H         1 UNK         0.1079 
     72 H72       -80.6639   28.6701  -75.7215 H         1 UNK         0.0837 
     73 H73       -80.0696   27.7287  -74.3873 H         1 UNK         0.0837 
     74 H74       -78.2604   29.5216  -74.9453 H         1 UNK         0.0685 
     75 H75       -78.2136   31.0975  -74.2032 H         1 UNK         0.0685 
     76 H76       -79.1276   27.8833  -72.4406 H         1 UNK         0.1434 
     77 H77       -75.7133   28.0401  -69.8739 H         1 UNK         0.1329 
     78 H78       -76.1696   30.9356  -73.0015 H         1 UNK         0.1335 
     79 H79       -74.4318   30.2544  -69.8803 H         1 UNK         0.0680 
     80 H80       -74.4949   31.2648  -71.3050 H         1 UNK         0.0680 
     81 H81       -71.9729   31.3269  -70.8299 H         1 UNK         0.1032 
     82 H82       -70.8416   30.2130  -71.5516 H         1 UNK         0.1032 
     83 H83       -72.8502   31.9358  -73.0904 H         1 UNK         0.0461 
     84 H84       -70.5040   34.5344  -72.4661 H         1 UNK         0.3453 
     85 H85       -72.1105   33.9356  -72.1489 H         1 UNK         0.3453 
     86 H86       -71.2873   29.6882  -74.0098 H         1 UNK         0.2984 
     87 H87       -72.6727   29.9412  -77.2216 H         1 UNK         0.0554 
     88 H88       -70.4859   30.9589  -77.7333 H         1 UNK         0.0847 
     89 H89       -70.4390   29.2352  -78.0678 H         1 UNK         0.0847 
     90 H90       -69.6713   29.8789  -76.6161 H         1 UNK         0.0847 
     91 H91       -72.8756   27.9640  -76.3617 H         1 UNK         0.3141 
     92 H92       -70.7522   25.6243  -75.0628 H         1 UNK         0.0743 
     93 H93       -72.8910   26.7216  -73.1646 H         1 UNK         0.0784 
     94 H94       -72.2923   25.0635  -73.1704 H         1 UNK         0.0784 
     95 H95       -71.2167   26.3894  -72.7559 H         1 UNK         0.0784 
     96 H96       -73.6479   25.7260  -75.3252 H         1 UNK         0.3213 
     97 H97       -73.7307   25.5094  -78.8162 H         1 UNK         0.0855 
     98 H98       -74.1130   22.9961  -77.1006 H         1 UNK         0.0814 
     99 H99       -72.9952   23.1216  -78.4528 H         1 UNK         0.0814 
    100 H100      -74.7201   23.2540  -78.7365 H         1 UNK         0.0814 
    101 H101      -75.8164   24.8182  -77.1043 H         1 UNK         0.3105 
    102 H102      -76.5928   27.9405  -75.6218 H         1 UNK         0.0547 
    103 H103      -77.6485   28.1794  -77.8471 H         1 UNK         0.0837 
    104 H104      -78.0015   26.4593  -77.9056 H         1 UNK         0.0837 
    105 H105      -78.8098   27.4858  -76.7253 H         1 UNK         0.0837 
    106 H106      -78.0271   25.5381  -75.4809 H         1 UNK         0.3020 
    107 H107      -76.0784   23.8605  -72.9886 H         1 UNK         0.1245 
    108 H108      -78.6815   23.9078  -72.2774 H         1 UNK         0.0781 
    109 H109      -78.5853   25.5622  -72.7881 H         1 UNK         0.0781 
    110 H110      -77.8299   26.7677  -69.2590 H         1 UNK         0.0836 
    111 H111      -79.0827   26.5256  -70.4437 H         1 UNK         0.0836 
    112 H112      -78.3965   23.4370  -74.7663 H         1 UNK         0.3022 
    113 H113      -76.6122   21.1243  -76.7541 H         1 UNK         0.0747 
    114 H114      -78.2984   19.4340  -76.0691 H         1 UNK         0.0793 
    115 H115      -77.0931   19.6282  -74.8083 H         1 UNK         0.0793 
    116 H116      -78.6792   20.3620  -74.6171 H         1 UNK         0.0793 
    117 H117      -79.4010   21.6954  -76.5911 H         1 UNK         0.3047 
    118 H118      -79.4027   24.6736  -78.5235 H         1 UNK         0.0822 
    119 H119      -80.8613   23.3242  -79.9897 H         1 UNK         0.0807 
    120 H120      -80.2867   21.8299  -79.2487 H         1 UNK         0.0807 
    121 H121      -79.1920   22.8256  -80.1981 H         1 UNK         0.0807 
    122 H122      -81.6082   23.2651  -77.6099 H         1 UNK         0.2946 
    123 H123      -82.9037   24.1992  -76.0028 H         1 UNK         0.1144 
    124 H124      -82.9925   23.1489  -73.7248 H         1 UNK         0.0793 
    125 H125      -81.2378   23.2461  -73.5943 H         1 UNK         0.0793 
    126 H126      -81.9786   22.1988  -74.7990 H         1 UNK         0.0793 
    127 H127      -81.7596   25.6364  -73.6829 H         1 UNK         0.2896 
@<TRIPOS>BOND
     1    1    2 1    
     2    1   67 1    
     3    1   68 1    
     4    1   69 1    
     5    2    3 2    
     6    2    4 am   BACKBONE|DICT|INTERRES
     7    4    5 1    
     8    4   70 1    
     9    5    6 1    
    10    5   65 1    
    11    5   71 1    
    12    6    7 1    
    13    6   72 1    
    14    6   73 1    
    15    7    8 1    
    16    8    9 1    
    17    8   74 1    
    18    8   75 1    
    19    9   10 ar   
    20    9   14 ar   
    21   10   11 ar   
    22   10   76 1    
    23   11   12 ar   
    24   11   48 1    
    25   12   13 ar   
    26   12   77 1    
    27   13   14 ar   
    28   13   15 1    
    29   14   78 1    
    30   15   16 1    
    31   15   79 1    
    32   15   80 1    
    33   16   17 1    
    34   17   18 1    
    35   17   81 1    
    36   17   82 1    
    37   18   19 1    
    38   18   22 1    
    39   18   83 1    
    40   19   20 am   BACKBONE|DICT|INTERRES
    41   19   21 2    
    42   20   84 1    
    43   20   85 1    
    44   22   23 am   BACKBONE|DICT|INTERRES
    45   22   86 1    
    46   23   24 2    
    47   23   25 1    
    48   25   26 1    
    49   25   27 1    
    50   25   87 1    
    51   26   88 1    
    52   26   89 1    
    53   26   90 1    
    54   27   28 am   BACKBONE|DICT|INTERRES
    55   27   91 1    
    56   28   29 2    
    57   28   30 1    
    58   30   31 1    
    59   30   32 1    
    60   30   92 1    
    61   31   93 1    
    62   31   94 1    
    63   31   95 1    
    64   32   33 am   BACKBONE|DICT|INTERRES
    65   32   96 1    
    66   33   34 2    
    67   33   35 1    
    68   35   36 1    
    69   35   37 1    
    70   35   97 1    
    71   36   98 1    
    72   36   99 1    
    73   36  100 1    
    74   37   38 am   BACKBONE|DICT|INTERRES
    75   37  101 1    
    76   38   39 2    
    77   38   40 1    
    78   40   41 1    
    79   40   42 1    
    80   40  102 1    
    81   41  103 1    
    82   41  104 1    
    83   41  105 1    
    84   42   43 am   BACKBONE|DICT|INTERRES
    85   42  106 1    
    86   43   44 2    
    87   43   45 1    
    88   45   46 1    
    89   45   49 1    
    90   45  107 1    
    91   46   47 1    
    92   46  108 1    
    93   46  109 1    
    94   47   48 1    
    95   48  110 1    
    96   48  111 1    
    97   49   50 am   BACKBONE|DICT|INTERRES
    98   49  112 1    
    99   50   51 2    
   100   50   52 1    
   101   52   53 1    
   102   52   54 1    
   103   52  113 1    
   104   53  114 1    
   105   53  115 1    
   106   53  116 1    
   107   54   55 am   BACKBONE|DICT|INTERRES
   108   54  117 1    
   109   55   56 2    
   110   55   57 1    
   111   57   58 1    
   112   57   59 1    
   113   57  118 1    
   114   58  119 1    
   115   58  120 1    
   116   58  121 1    
   117   59   60 am   BACKBONE|DICT|INTERRES
   118   59  122 1    
   119   60   61 2    
   120   60   62 1    
   121   62   63 1    
   122   62   64 1    
   123   62  123 1    
   124   63  124 1    
   125   63  125 1    
   126   63  126 1    
   127   64   65 am   BACKBONE|DICT|INTERRES
   128   64  127 1    
   129   65   66 2    
@<TRIPOS>SUBSTRUCTURE
     1 UNK         1 GROUP             0       ****    0 ROOT    
