@<TRIPOS>MOLECULE
3R135
127   129    1
SMALL
USER_CHARGES


@<TRIPOS>ATOM
      1 CA        -80.5050   22.1601  -71.9425 C.3       0 UNK        -0.1998 
      2 C         -81.3228   23.2907  -72.5466 C.2       0 UNK         0.4909 
      3 O         -81.9561   23.1011  -73.5854 O.2       0 UNK        -0.5240 
      4 N         -81.3125   24.4725  -71.9147 N.am      1 UNK        -0.4739 
      5 CA        -82.0077   25.6738  -72.3926 C.3       1 UNK         0.0864 
      6 C6        -82.1615   26.7375  -71.2553 C.3       11 UNK        -0.0881 
      7 S7        -81.2739   28.3272  -71.4041 S.3       11 UNK        -0.2682 
      8 C8        -79.6013   27.8601  -70.8290 C.3       11 UNK         0.0289 
      9 C9        -78.4388   28.5432  -71.5564 C.ar      11 UNK        -0.0687 
     10 C10       -78.6277   29.5141  -72.5492 C.ar      11 UNK        -0.0823 
     11 C11       -77.5404   30.0890  -73.2115 C.ar      11 UNK        -0.0830 
     12 C12       -76.2436   29.7027  -72.8664 C.ar      11 UNK        -0.1021 
     13 C13       -76.0343   28.7389  -71.8761 C.ar      11 UNK        -0.0753 
     14 C14       -77.1324   28.1660  -71.2264 C.ar      11 UNK        -0.0933 
     15 C15       -74.6197   28.3098  -71.5248 C.3       11 UNK         0.0166 
     16 S16       -73.8312   29.5082  -70.4112 S.3       11 UNK        -0.2615 
     17 C17       -72.0911   28.9660  -70.4924 C.3       11 UNK        -0.0865 
     18 CA        -71.2153   29.8935  -71.3827 C.3       10 UNK         0.0862 
     19 C         -69.6929   29.6634  -71.1461 C.2       10 UNK         0.5551 
     20 N         -68.8557   29.6297  -72.1770 N.am      10 UNK        -0.7319 
     21 O         -69.2543   29.5302  -70.0062 O.2       10 UNK        -0.5018 
     22 N         -71.5839   29.7995  -72.8076 N.am      10 UNK        -0.4509 
     23 C         -72.1863   30.7511  -73.5322 C.2       10 UNK         0.4899 
     24 O         -72.5729   31.8233  -73.0662 O.2       10 UNK        -0.4839 
     25 CA        -72.3679   30.4926  -75.0438 C.3       9 UNK         0.0222 
     26 CB        -71.6828   31.5958  -75.8698 C.3       9 UNK        -0.1966 
     27 N         -71.8609   29.1888  -75.4919 N.am      9 UNK        -0.4218 
     28 C         -72.5424   28.0402  -75.4059 C.2       9 UNK         0.5020 
     29 O         -73.6690   27.9513  -74.9246 O.2       9 UNK        -0.5274 
     30 CA        -71.8149   26.7775  -75.8769 C.3       8 UNK         0.0270 
     31 CB        -70.9379   26.2087  -74.7438 C.3       8 UNK        -0.1976 
     32 N         -72.7859   25.7727  -76.3111 N.am      8 UNK        -0.4313 
     33 C         -72.5091   24.7617  -77.1458 C.2       8 UNK         0.5041 
     34 O         -71.3950   24.5687  -77.6361 O.2       8 UNK        -0.5577 
     35 CA        -73.6531   23.8023  -77.5100 C.3       7 UNK         0.0284 
     36 CB        -73.9086   22.7879  -76.3827 C.3       7 UNK        -0.1958 
     37 N         -74.8881   24.5150  -77.8358 N.am      7 UNK        -0.4454 
     38 C         -75.1370   25.0902  -79.0210 C.2       7 UNK         0.5089 
     39 O         -74.3631   25.0455  -79.9782 O.2       7 UNK        -0.5125 
     40 CA        -76.4751   25.8373  -79.1811 C.3       6 UNK         0.0408 
     41 CB        -77.5380   24.9082  -79.7875 C.3       6 UNK        -0.1791 
     42 N         -76.9817   26.3994  -77.9281 N.am      6 UNK        -0.4762 
     43 C         -76.3946   27.3955  -77.2486 C.2       6 UNK         0.5007 
     44 O         -75.4070   28.0052  -77.6601 O.2       6 UNK        -0.5032 
     45 CA        -76.9966   27.7389  -75.8682 C.3       5 UNK         0.0783 
     46 C46       -78.1134   28.8086  -75.9893 C.3       11 UNK        -0.0857 
     47 S47       -77.3961   30.4903  -75.9802 S.3       11 UNK        -0.2512 
     48 C48       -77.7841   31.1160  -74.3100 C.3       11 UNK         0.0225 
     49 N         -77.4336   26.5481  -75.1269 N.am      5 UNK        -0.4615 
     50 C         -76.6225   25.5420  -74.7635 C.2       4 UNK         0.5053 
     51 O         -75.4158   25.5107  -74.9945 O.2       4 UNK        -0.5105 
     52 CA        -77.2768   24.3197  -74.1076 C.3       4 UNK         0.0263 
     53 CB        -77.5263   24.5572  -72.6097 C.3       4 UNK        -0.1981 
     54 N         -78.5178   23.9656  -74.7987 N.am      4 UNK        -0.4224 
     55 C         -78.5498   23.3724  -76.0030 C.2       3 UNK         0.4895 
     56 O         -77.5469   22.9595  -76.5849 O.2       3 UNK        -0.5091 
     57 CA        -79.9153   23.2462  -76.7007 C.3       3 UNK         0.0250 
     58 CB        -80.5393   21.8685  -76.4296 C.3       3 UNK        -0.1996 
     59 N         -80.8508   24.3084  -76.3190 N.am      3 UNK        -0.4254 
     60 C         -80.7265   25.5861  -76.7130 C.2       2 UNK         0.5004 
     61 O         -79.8387   25.9785  -77.4694 O.2       2 UNK        -0.5226 
     62 CA        -81.7177   26.6134  -76.1310 C.3       2 UNK         0.0269 
     63 CB        -82.9311   26.7747  -77.0596 C.3       2 UNK        -0.1926 
     64 N         -82.1785   26.2977  -74.7733 N.am      2 UNK        -0.4687 
     65 C         -81.3651   26.1502  -73.7184 C.2       1 UNK         0.5165 
     66 O         -80.1423   26.2980  -73.7905 O.2       1 UNK        -0.5079 
     67 H67       -81.1496   21.3107  -71.7187 H         1 UNK         0.0900 
     68 H68       -79.7419   21.8320  -72.6480 H         1 UNK         0.0900 
     69 H69       -80.0096   22.4624  -71.0201 H         1 UNK         0.0900 
     70 H70       -80.7567   24.5857  -71.0797 H         1 UNK         0.2959 
     71 H71       -83.0203   25.3432  -72.6374 H         1 UNK         0.1079 
     72 H72       -81.9298   26.3071  -70.2794 H         1 UNK         0.0837 
     73 H73       -83.2175   27.0030  -71.1831 H         1 UNK         0.0837 
     74 H74       -79.5306   28.0729  -69.7616 H         1 UNK         0.0685 
     75 H75       -79.4799   26.7822  -70.9387 H         1 UNK         0.0685 
     76 H76       -79.6223   29.8225  -72.8342 H         1 UNK         0.1434 
     77 H77       -75.3964   30.1389  -73.3784 H         1 UNK         0.1329 
     78 H78       -76.9692   27.4165  -70.4641 H         1 UNK         0.1335 
     79 H79       -74.6185   27.3233  -71.0589 H         1 UNK         0.0680 
     80 H80       -74.0298   28.2208  -72.4354 H         1 UNK         0.0680 
     81 H81       -71.7245   28.9592  -69.4643 H         1 UNK         0.1032 
     82 H82       -72.0309   27.9317  -70.8353 H         1 UNK         0.1032 
     83 H83       -71.3775   30.9174  -71.0415 H         1 UNK         0.0461 
     84 H84       -69.1828   29.7957  -73.1143 H         1 UNK         0.3453 
     85 H85       -67.8728   29.4864  -72.0052 H         1 UNK         0.3453 
     86 H86       -71.3077   28.9492  -73.2739 H         1 UNK         0.2984 
     87 H87       -73.4401   30.5407  -75.2480 H         1 UNK         0.0554 
     88 H88       -72.0766   32.5805  -75.6139 H         1 UNK         0.0847 
     89 H89       -71.8499   31.4541  -76.9377 H         1 UNK         0.0847 
     90 H90       -70.6061   31.6219  -75.6974 H         1 UNK         0.0847 
     91 H91       -70.9324   29.1772  -75.8906 H         1 UNK         0.3141 
     92 H92       -71.1835   27.0467  -76.7265 H         1 UNK         0.0743 
     93 H93       -71.5389   25.9207  -73.8801 H         1 UNK         0.0784 
     94 H94       -70.3833   25.3292  -75.0715 H         1 UNK         0.0784 
     95 H95       -70.2038   26.9404  -74.4047 H         1 UNK         0.0784 
     96 H96       -73.7256   25.8836  -75.9287 H         1 UNK         0.3213 
     97 H97       -73.3421   23.2367  -78.3914 H         1 UNK         0.0855 
     98 H98       -74.1798   23.2729  -75.4455 H         1 UNK         0.0814 
     99 H99       -73.0159   22.1916  -76.1903 H         1 UNK         0.0814 
    100 H100      -74.7105   22.0973  -76.6451 H         1 UNK         0.0814 
    101 H101      -75.5659   24.6192  -77.0915 H         1 UNK         0.3105 
    102 H102      -76.3117   26.6642  -79.8753 H         1 UNK         0.0547 
    103 H103      -77.2101   24.5178  -80.7517 H         1 UNK         0.0837 
    104 H104      -77.7403   24.0531  -79.1423 H         1 UNK         0.0837 
    105 H105      -78.4787   25.4336  -79.9533 H         1 UNK         0.0837 
    106 H106      -77.8545   26.0196  -77.5723 H         1 UNK         0.3020 
    107 H107      -76.1829   28.1560  -75.2723 H         1 UNK         0.1245 
    108 H108      -78.8312   28.7184  -75.1742 H         1 UNK         0.0781 
    109 H109      -78.7036   28.6754  -76.8984 H         1 UNK         0.0781 
    110 H110      -78.8219   31.4528  -74.2985 H         1 UNK         0.0836 
    111 H111      -77.1778   32.0019  -74.1157 H         1 UNK         0.0836 
    112 H112      -78.4094   26.5070  -74.8523 H         1 UNK         0.3022 
    113 H113      -76.5824   23.4811  -74.1965 H         1 UNK         0.0747 
    114 H114      -77.9516   23.6757  -72.1321 H         1 UNK         0.0793 
    115 H115      -76.5907   24.7826  -72.0961 H         1 UNK         0.0793 
    116 H116      -78.1961   25.3966  -72.4323 H         1 UNK         0.0793 
    117 H117      -79.3731   24.3528  -74.4215 H         1 UNK         0.3047 
    118 H118      -79.7412   23.3256  -77.7760 H         1 UNK         0.0822 
    119 H119      -81.5052   21.7636  -76.9238 H         1 UNK         0.0807 
    120 H120      -80.6840   21.6875  -75.3648 H         1 UNK         0.0807 
    121 H121      -79.8952   21.0725  -76.8059 H         1 UNK         0.0807 
    122 H122      -81.5790   24.0628  -75.6591 H         1 UNK         0.2946 
    123 H123      -81.1927   27.5703  -76.0841 H         1 UNK         0.1144 
    124 H124      -83.5913   27.5714  -76.7163 H         1 UNK         0.0793 
    125 H125      -83.5159   25.8563  -77.1243 H         1 UNK         0.0793 
    126 H126      -82.6157   27.0323  -78.0719 H         1 UNK         0.0793 
    127 H127      -83.1696   26.1410  -74.6568 H         1 UNK         0.2896 
@<TRIPOS>BOND
     1    1    2 1    
     2    1   67 1    
     3    1   68 1    
     4    1   69 1    
     5    2    3 2    
     6    2    4 am   BACKBONE|DICT|INTERRES
     7    4    5 1    
     8    4   70 1    
     9    5    6 1    
    10    5   65 1    
    11    5   71 1    
    12    6    7 1    
    13    6   72 1    
    14    6   73 1    
    15    7    8 1    
    16    8    9 1    
    17    8   74 1    
    18    8   75 1    
    19    9   10 ar   
    20    9   14 ar   
    21   10   11 ar   
    22   10   76 1    
    23   11   12 ar   
    24   11   48 1    
    25   12   13 ar   
    26   12   77 1    
    27   13   14 ar   
    28   13   15 1    
    29   14   78 1    
    30   15   16 1    
    31   15   79 1    
    32   15   80 1    
    33   16   17 1    
    34   17   18 1    
    35   17   81 1    
    36   17   82 1    
    37   18   19 1    
    38   18   22 1    
    39   18   83 1    
    40   19   20 am   BACKBONE|DICT|INTERRES
    41   19   21 2    
    42   20   84 1    
    43   20   85 1    
    44   22   23 am   BACKBONE|DICT|INTERRES
    45   22   86 1    
    46   23   24 2    
    47   23   25 1    
    48   25   26 1    
    49   25   27 1    
    50   25   87 1    
    51   26   88 1    
    52   26   89 1    
    53   26   90 1    
    54   27   28 am   BACKBONE|DICT|INTERRES
    55   27   91 1    
    56   28   29 2    
    57   28   30 1    
    58   30   31 1    
    59   30   32 1    
    60   30   92 1    
    61   31   93 1    
    62   31   94 1    
    63   31   95 1    
    64   32   33 am   BACKBONE|DICT|INTERRES
    65   32   96 1    
    66   33   34 2    
    67   33   35 1    
    68   35   36 1    
    69   35   37 1    
    70   35   97 1    
    71   36   98 1    
    72   36   99 1    
    73   36  100 1    
    74   37   38 am   BACKBONE|DICT|INTERRES
    75   37  101 1    
    76   38   39 2    
    77   38   40 1    
    78   40   41 1    
    79   40   42 1    
    80   40  102 1    
    81   41  103 1    
    82   41  104 1    
    83   41  105 1    
    84   42   43 am   BACKBONE|DICT|INTERRES
    85   42  106 1    
    86   43   44 2    
    87   43   45 1    
    88   45   46 1    
    89   45   49 1    
    90   45  107 1    
    91   46   47 1    
    92   46  108 1    
    93   46  109 1    
    94   47   48 1    
    95   48  110 1    
    96   48  111 1    
    97   49   50 am   BACKBONE|DICT|INTERRES
    98   49  112 1    
    99   50   51 2    
   100   50   52 1    
   101   52   53 1    
   102   52   54 1    
   103   52  113 1    
   104   53  114 1    
   105   53  115 1    
   106   53  116 1    
   107   54   55 am   BACKBONE|DICT|INTERRES
   108   54  117 1    
   109   55   56 2    
   110   55   57 1    
   111   57   58 1    
   112   57   59 1    
   113   57  118 1    
   114   58  119 1    
   115   58  120 1    
   116   58  121 1    
   117   59   60 am   BACKBONE|DICT|INTERRES
   118   59  122 1    
   119   60   61 2    
   120   60   62 1    
   121   62   63 1    
   122   62   64 1    
   123   62  123 1    
   124   63  124 1    
   125   63  125 1    
   126   63  126 1    
   127   64   65 am   BACKBONE|DICT|INTERRES
   128   64  127 1    
   129   65   66 2    
@<TRIPOS>SUBSTRUCTURE
     1 UNK         1 GROUP             0       ****    0 ROOT    
