@<TRIPOS>MOLECULE
3R135
127   129    1
SMALL
USER_CHARGES


@<TRIPOS>ATOM
      1 CA        -80.1198   24.7318  -70.4716 C.3       0 UNK        -0.1998 
      2 C         -81.4809   24.4667  -71.1118 C.2       0 UNK         0.4909 
      3 O         -82.0931   23.4484  -70.7953 O.2       0 UNK        -0.5240 
      4 N         -82.0200   25.3229  -71.9943 N.am      1 UNK        -0.4739 
      5 CA        -81.4945   26.5820  -72.5437 C.3       1 UNK         0.0864 
      6 C6        -81.0910   27.6111  -71.4511 C.3       11 UNK        -0.0881 
      7 S7        -81.1759   29.3463  -72.0157 S.3       11 UNK        -0.2682 
      8 C8        -79.6318   30.0418  -71.3392 C.3       11 UNK         0.0289 
      9 C9        -78.3986   29.5496  -72.0848 C.ar      11 UNK        -0.0687 
     10 C10       -77.6444   28.4867  -71.5803 C.ar      11 UNK        -0.0823 
     11 C11       -76.5203   28.0238  -72.2674 C.ar      11 UNK        -0.0830 
     12 C12       -76.1418   28.6409  -73.4628 C.ar      11 UNK        -0.1021 
     13 C13       -76.8651   29.7303  -73.9626 C.ar      11 UNK        -0.0753 
     14 C14       -77.9974   30.1728  -73.2701 C.ar      11 UNK        -0.0933 
     15 C15       -76.4482   30.4316  -75.2535 C.3       11 UNK         0.0166 
     16 S16       -74.6544   30.7301  -75.3906 S.3       11 UNK        -0.2615 
     17 C17       -74.3503   31.7456  -73.9068 C.3       11 UNK        -0.0865 
     18 CA        -72.8448   32.0069  -73.6468 C.3       10 UNK         0.0862 
     19 C         -72.6766   32.9874  -72.4478 C.2       10 UNK         0.5551 
     20 N         -72.1776   32.5525  -71.2968 N.am      10 UNK        -0.7319 
     21 O         -73.0062   34.1648  -72.5686 O.2       10 UNK        -0.5018 
     22 N         -72.0753   30.7527  -73.5430 N.am      10 UNK        -0.4509 
     23 C         -70.7401   30.6668  -73.5485 C.2       10 UNK         0.4899 
     24 O         -69.9920   31.6351  -73.6861 O.2       10 UNK        -0.4839 
     25 CA        -70.1209   29.2705  -73.3645 C.3       9 UNK         0.0222 
     26 CB        -70.3461   28.7352  -71.9352 C.3       9 UNK        -0.1966 
     27 N         -70.5165   28.2915  -74.3859 N.am      9 UNK        -0.4218 
     28 C         -71.7186   27.7386  -74.5968 C.2       9 UNK         0.5020 
     29 O         -72.7252   27.9815  -73.9268 O.2       9 UNK        -0.5274 
     30 CA        -71.7794   26.6837  -75.7130 C.3       8 UNK         0.0270 
     31 CB        -71.5175   25.2853  -75.1322 C.3       8 UNK        -0.1976 
     32 N         -73.0751   26.6912  -76.3927 N.am      8 UNK        -0.4313 
     33 C         -73.4577   27.6238  -77.2760 C.2       8 UNK         0.5041 
     34 O         -72.7137   28.5265  -77.6659 O.2       8 UNK        -0.5577 
     35 CA        -74.9036   27.5375  -77.8155 C.3       7 UNK         0.0284 
     36 CB        -75.0822   28.2568  -79.1683 C.3       7 UNK        -0.1958 
     37 N         -75.4474   26.1757  -77.8823 N.am      7 UNK        -0.4454 
     38 C         -74.9540   25.1184  -78.5462 C.2       7 UNK         0.5089 
     39 O         -73.9557   25.1555  -79.2672 O.2       7 UNK        -0.5125 
     40 CA        -75.7058   23.7885  -78.3243 C.3       6 UNK         0.0408 
     41 CB        -74.9063   22.5520  -78.7852 C.3       6 UNK        -0.1791 
     42 N         -76.1561   23.6432  -76.9332 N.am      6 UNK        -0.4762 
     43 C         -75.3891   23.6137  -75.8316 C.2       6 UNK         0.5007 
     44 O         -74.1604   23.5742  -75.8584 O.2       6 UNK        -0.5032 
     45 CA        -76.0968   23.7169  -74.4647 C.3       5 UNK         0.0783 
     46 C46       -75.9064   25.1415  -73.8918 C.3       11 UNK        -0.0857 
     47 S47       -76.4350   25.2619  -72.1551 S.3       11 UNK        -0.2512 
     48 C48       -75.7105   26.8677  -71.7016 C.3       11 UNK         0.0225 
     49 N         -77.5148   23.3492  -74.5312 N.am      5 UNK        -0.4615 
     50 C         -77.9732   22.1030  -74.7071 C.2       4 UNK         0.5053 
     51 O         -77.2523   21.1069  -74.7650 O.2       4 UNK        -0.5105 
     52 CA        -79.4912   21.9506  -74.8783 C.3       4 UNK         0.0263 
     53 CB        -80.1812   21.8546  -73.5095 C.3       4 UNK        -0.1981 
     54 N         -80.0531   23.0669  -75.6440 N.am      4 UNK        -0.4224 
     55 C         -79.9934   23.1621  -76.9808 C.2       3 UNK         0.4895 
     56 O         -79.5168   22.2896  -77.7067 O.2       3 UNK        -0.5091 
     57 CA        -80.5406   24.4471  -77.6269 C.3       3 UNK         0.0250 
     58 CB        -82.0264   24.2784  -77.9828 C.3       3 UNK        -0.1996 
     59 N         -80.3746   25.6395  -76.7937 N.am      3 UNK        -0.4254 
     60 C         -79.1972   26.2076  -76.4989 C.2       2 UNK         0.5004 
     61 O         -78.1115   25.8008  -76.9100 O.2       2 UNK        -0.5226 
     62 CA        -79.2304   27.4236  -75.5618 C.3       2 UNK         0.0269 
     63 CB        -79.4530   28.7027  -76.3847 C.3       2 UNK        -0.1926 
     64 N         -80.2328   27.3593  -74.4916 N.am      2 UNK        -0.4687 
     65 C         -80.4085   26.3549  -73.6212 C.2       1 UNK         0.5165 
     66 O         -79.7868   25.2904  -73.6787 O.2       1 UNK        -0.5079 
     67 H67       -80.2262   25.4008  -69.6186 H         1 UNK         0.0900 
     68 H68       -79.6886   23.7988  -70.1096 H         1 UNK         0.0900 
     69 H69       -79.4031   25.1611  -71.1677 H         1 UNK         0.0900 
     70 H70       -82.9150   25.0603  -72.3832 H         1 UNK         0.2959 
     71 H71       -82.3513   26.9992  -73.0761 H         1 UNK         0.1079 
     72 H72       -80.1012   27.3959  -71.0559 H         1 UNK         0.0837 
     73 H73       -81.7701   27.5313  -70.6007 H         1 UNK         0.0837 
     74 H74       -79.5605   29.8044  -70.2766 H         1 UNK         0.0685 
     75 H75       -79.6824   31.1298  -71.4020 H         1 UNK         0.0685 
     76 H76       -77.9309   28.0125  -70.6520 H         1 UNK         0.1434 
     77 H77       -75.2726   28.2834  -73.9966 H         1 UNK         0.1329 
     78 H78       -78.5735   31.0037  -73.6537 H         1 UNK         0.1335 
     79 H79       -76.7640   29.8253  -76.1012 H         1 UNK         0.0680 
     80 H80       -76.9618   31.3892  -75.3521 H         1 UNK         0.0680 
     81 H81       -74.7936   31.2543  -73.0389 H         1 UNK         0.1032 
     82 H82       -74.8886   32.6873  -74.0325 H         1 UNK         0.1032 
     83 H83       -72.4543   32.5356  -74.5185 H         1 UNK         0.0461 
     84 H84       -72.0705   33.1957  -70.5284 H         1 UNK         0.3453 
     85 H85       -71.9085   31.5879  -71.1919 H         1 UNK         0.3453 
     86 H86       -72.6065   29.8874  -73.5007 H         1 UNK         0.2984 
     87 H87       -69.0436   29.3920  -73.4891 H         1 UNK         0.0554 
     88 H88       -69.9584   29.4346  -71.1934 H         1 UNK         0.0847 
     89 H89       -69.8318   27.7864  -71.7833 H         1 UNK         0.0847 
     90 H90       -71.4020   28.5806  -71.7117 H         1 UNK         0.0847 
     91 H91       -69.7713   28.0217  -75.0137 H         1 UNK         0.3141 
     92 H92       -71.0041   26.9007  -76.4512 H         1 UNK         0.0743 
     93 H93       -70.5394   25.2362  -74.6518 H         1 UNK         0.0784 
     94 H94       -71.5333   24.5228  -75.9114 H         1 UNK         0.0784 
     95 H95       -72.2619   25.0141  -74.3823 H         1 UNK         0.0784 
     96 H96       -73.7232   25.9591  -76.1408 H         1 UNK         0.3213 
     97 H97       -75.5173   28.0623  -77.0832 H         1 UNK         0.0855 
     98 H98       -74.4558   27.8156  -79.9442 H         1 UNK         0.0814 
     99 H99       -74.8117   29.3106  -79.0902 H         1 UNK         0.0814 
    100 H100      -76.1175   28.2147  -79.5063 H         1 UNK         0.0814 
    101 H101      -76.3215   26.0254  -77.3801 H         1 UNK         0.3105 
    102 H102      -76.6106   23.8434  -78.9314 H         1 UNK         0.0547 
    103 H103      -75.4633   21.6320  -78.6091 H         1 UNK         0.0837 
    104 H104      -73.9493   22.4698  -78.2694 H         1 UNK         0.0837 
    105 H105      -74.6937   22.6026  -79.8537 H         1 UNK         0.0837 
    106 H106      -77.1528   23.7507  -76.7930 H         1 UNK         0.3020 
    107 H107      -75.5942   23.0079  -73.8025 H         1 UNK         0.1245 
    108 H108      -76.4624   25.8727  -74.4809 H         1 UNK         0.0781 
    109 H109      -74.8568   25.4403  -73.9383 H         1 UNK         0.0781 
    110 H110      -74.6738   26.9210  -72.0391 H         1 UNK         0.0836 
    111 H111      -75.6766   26.9428  -70.6138 H         1 UNK         0.0836 
    112 H112      -78.1835   24.1027  -74.4149 H         1 UNK         0.3022 
    113 H113      -79.6812   21.0205  -75.4187 H         1 UNK         0.0747 
    114 H114      -81.2641   21.7806  -73.6100 H         1 UNK         0.0793 
    115 H115      -79.8434   20.9713  -72.9660 H         1 UNK         0.0793 
    116 H116      -79.9592   22.7203  -72.8863 H         1 UNK         0.0793 
    117 H117      -80.3880   23.8587  -75.1078 H         1 UNK         0.3047 
    118 H118      -79.9841   24.6082  -78.5530 H         1 UNK         0.0822 
    119 H119      -82.4071   25.1470  -78.5205 H         1 UNK         0.0807 
    120 H120      -82.6423   24.1356  -77.0939 H         1 UNK         0.0807 
    121 H121      -82.1770   23.4103  -78.6264 H         1 UNK         0.0807 
    122 H122      -81.2117   26.0510  -76.4075 H         1 UNK         0.2946 
    123 H123      -78.2534   27.4820  -75.0800 H         1 UNK         0.1144 
    124 H124      -79.3807   29.5959  -75.7652 H         1 UNK         0.0793 
    125 H125      -80.4335   28.7092  -76.8623 H         1 UNK         0.0793 
    126 H126      -78.7072   28.7947  -77.1758 H         1 UNK         0.0793 
    127 H127      -80.7712   28.2021  -74.3439 H         1 UNK         0.2896 
@<TRIPOS>BOND
     1    1    2 1    
     2    1   67 1    
     3    1   68 1    
     4    1   69 1    
     5    2    3 2    
     6    2    4 am   BACKBONE|DICT|INTERRES
     7    4    5 1    
     8    4   70 1    
     9    5    6 1    
    10    5   65 1    
    11    5   71 1    
    12    6    7 1    
    13    6   72 1    
    14    6   73 1    
    15    7    8 1    
    16    8    9 1    
    17    8   74 1    
    18    8   75 1    
    19    9   10 ar   
    20    9   14 ar   
    21   10   11 ar   
    22   10   76 1    
    23   11   12 ar   
    24   11   48 1    
    25   12   13 ar   
    26   12   77 1    
    27   13   14 ar   
    28   13   15 1    
    29   14   78 1    
    30   15   16 1    
    31   15   79 1    
    32   15   80 1    
    33   16   17 1    
    34   17   18 1    
    35   17   81 1    
    36   17   82 1    
    37   18   19 1    
    38   18   22 1    
    39   18   83 1    
    40   19   20 am   BACKBONE|DICT|INTERRES
    41   19   21 2    
    42   20   84 1    
    43   20   85 1    
    44   22   23 am   BACKBONE|DICT|INTERRES
    45   22   86 1    
    46   23   24 2    
    47   23   25 1    
    48   25   26 1    
    49   25   27 1    
    50   25   87 1    
    51   26   88 1    
    52   26   89 1    
    53   26   90 1    
    54   27   28 am   BACKBONE|DICT|INTERRES
    55   27   91 1    
    56   28   29 2    
    57   28   30 1    
    58   30   31 1    
    59   30   32 1    
    60   30   92 1    
    61   31   93 1    
    62   31   94 1    
    63   31   95 1    
    64   32   33 am   BACKBONE|DICT|INTERRES
    65   32   96 1    
    66   33   34 2    
    67   33   35 1    
    68   35   36 1    
    69   35   37 1    
    70   35   97 1    
    71   36   98 1    
    72   36   99 1    
    73   36  100 1    
    74   37   38 am   BACKBONE|DICT|INTERRES
    75   37  101 1    
    76   38   39 2    
    77   38   40 1    
    78   40   41 1    
    79   40   42 1    
    80   40  102 1    
    81   41  103 1    
    82   41  104 1    
    83   41  105 1    
    84   42   43 am   BACKBONE|DICT|INTERRES
    85   42  106 1    
    86   43   44 2    
    87   43   45 1    
    88   45   46 1    
    89   45   49 1    
    90   45  107 1    
    91   46   47 1    
    92   46  108 1    
    93   46  109 1    
    94   47   48 1    
    95   48  110 1    
    96   48  111 1    
    97   49   50 am   BACKBONE|DICT|INTERRES
    98   49  112 1    
    99   50   51 2    
   100   50   52 1    
   101   52   53 1    
   102   52   54 1    
   103   52  113 1    
   104   53  114 1    
   105   53  115 1    
   106   53  116 1    
   107   54   55 am   BACKBONE|DICT|INTERRES
   108   54  117 1    
   109   55   56 2    
   110   55   57 1    
   111   57   58 1    
   112   57   59 1    
   113   57  118 1    
   114   58  119 1    
   115   58  120 1    
   116   58  121 1    
   117   59   60 am   BACKBONE|DICT|INTERRES
   118   59  122 1    
   119   60   61 2    
   120   60   62 1    
   121   62   63 1    
   122   62   64 1    
   123   62  123 1    
   124   63  124 1    
   125   63  125 1    
   126   63  126 1    
   127   64   65 am   BACKBONE|DICT|INTERRES
   128   64  127 1    
   129   65   66 2    
@<TRIPOS>SUBSTRUCTURE
     1 UNK         1 GROUP             0       ****    0 ROOT    
