@<TRIPOS>MOLECULE
3R135
127   129    1
SMALL
USER_CHARGES


@<TRIPOS>ATOM
      1 CA        -78.9803   31.4572  -76.0145 C.3       0 UNK        -0.1998 
      2 C         -78.4515   30.0618  -75.7178 C.2       0 UNK         0.4909 
      3 O         -77.4585   29.6462  -76.3123 O.2       0 UNK        -0.5240 
      4 N         -79.1234   29.3342  -74.8157 N.am      1 UNK        -0.4739 
      5 CA        -78.7605   27.9869  -74.3484 C.3       1 UNK         0.0864 
      6 C6        -79.6195   27.5653  -73.1284 C.3       11 UNK        -0.0881 
      7 S7        -79.6497   28.7796  -71.7628 S.3       11 UNK        -0.2682 
      8 C8        -78.8968   27.8426  -70.3948 C.3       11 UNK         0.0289 
      9 C9        -77.3792   27.9217  -70.4369 C.ar      11 UNK        -0.0687 
     10 C10       -76.6500   27.0650  -71.2649 C.ar      11 UNK        -0.0823 
     11 C11       -75.2540   27.1560  -71.3392 C.ar      11 UNK        -0.0830 
     12 C12       -74.5937   28.0837  -70.5272 C.ar      11 UNK        -0.1021 
     13 C13       -75.3106   28.9416  -69.6869 C.ar      11 UNK        -0.0753 
     14 C14       -76.7047   28.8592  -69.6509 C.ar      11 UNK        -0.0933 
     15 C15       -74.5827   29.9656  -68.8267 C.3       11 UNK         0.0166 
     16 S16       -73.6304   31.1580  -69.8213 S.3       11 UNK        -0.2615 
     17 C17       -74.9369   31.9750  -70.8078 C.3       11 UNK        -0.0865 
     18 CA        -75.1350   31.3605  -72.2227 C.3       10 UNK         0.0862 
     19 C         -76.1952   32.1653  -73.0297 C.2       10 UNK         0.5551 
     20 N         -75.8463   32.7813  -74.1530 N.am      10 UNK        -0.7319 
     21 O         -77.3513   32.2417  -72.6231 O.2       10 UNK        -0.5018 
     22 N         -73.8520   31.1617  -72.9191 N.am      10 UNK        -0.4509 
     23 C         -73.6444   30.2666  -73.8897 C.2       10 UNK         0.4899 
     24 O         -74.5128   29.5226  -74.3465 O.2       10 UNK        -0.4839 
     25 CA        -72.2068   30.1691  -74.4106 C.3       9 UNK         0.0222 
     26 CB        -71.3302   29.3463  -73.4461 C.3       9 UNK        -0.1966 
     27 N         -72.2165   29.5475  -75.7312 N.am      9 UNK        -0.4218 
     28 C         -71.2530   29.6389  -76.6534 C.2       9 UNK         0.5020 
     29 O         -70.2137   30.2817  -76.4897 O.2       9 UNK        -0.5274 
     30 CA        -71.4796   28.8572  -77.9648 C.3       8 UNK         0.0270 
     31 CB        -70.3289   29.0387  -78.9736 C.3       8 UNK        -0.1976 
     32 N         -71.6657   27.4253  -77.7089 N.am      8 UNK        -0.4313 
     33 C         -72.8064   26.8681  -77.2872 C.2       8 UNK         0.5041 
     34 O         -73.8461   27.5077  -77.1109 O.2       8 UNK        -0.5577 
     35 CA        -72.7542   25.3707  -76.9522 C.3       7 UNK         0.0284 
     36 CB        -72.0526   25.1500  -75.6004 C.3       7 UNK        -0.1958 
     37 N         -74.1086   24.8280  -76.8691 N.am      7 UNK        -0.4454 
     38 C         -74.7822   24.2724  -77.8832 C.2       7 UNK         0.5089 
     39 O         -74.2959   24.0868  -79.0003 O.2       7 UNK        -0.5125 
     40 CA        -76.2504   23.8710  -77.6162 C.3       6 UNK         0.0408 
     41 CB        -76.6727   22.6175  -78.4115 C.3       6 UNK        -0.1791 
     42 N         -76.5856   23.7289  -76.1922 N.am      6 UNK        -0.4762 
     43 C         -76.0817   22.8355  -75.3219 C.2       6 UNK         0.5007 
     44 O         -75.2764   21.9556  -75.6280 O.2       6 UNK        -0.5032 
     45 CA        -76.5640   22.9347  -73.8630 C.3       5 UNK         0.0783 
     46 C46       -75.7042   23.8784  -72.9751 C.3       11 UNK        -0.0857 
     47 S47       -75.3437   25.5326  -73.6649 S.3       11 UNK        -0.2512 
     48 C48       -74.4189   26.2949  -72.2875 C.3       11 UNK         0.0225 
     49 N         -77.9984   23.2346  -73.8239 N.am      5 UNK        -0.4615 
     50 C         -78.8836   22.5415  -73.0965 C.2       4 UNK         0.5053 
     51 O         -78.5677   21.7239  -72.2314 O.2       4 UNK        -0.5105 
     52 CA        -80.3757   22.7456  -73.4130 C.3       4 UNK         0.0263 
     53 CB        -80.9719   23.9004  -72.5960 C.3       4 UNK        -0.1981 
     54 N         -80.6450   22.9614  -74.8368 N.am      4 UNK        -0.4224 
     55 C         -80.4662   22.0604  -75.8120 C.2       3 UNK         0.4895 
     56 O         -80.0628   20.9141  -75.6146 O.2       3 UNK        -0.5091 
     57 CA        -80.7814   22.5000  -77.2564 C.3       3 UNK         0.0250 
     58 CB        -82.2814   22.3349  -77.5703 C.3       3 UNK        -0.1996 
     59 N         -80.2964   23.8434  -77.6147 N.am      3 UNK        -0.4254 
     60 C         -80.6807   25.0292  -77.1228 C.2       2 UNK         0.5004 
     61 O         -81.5779   25.1774  -76.2890 O.2       2 UNK        -0.5226 
     62 CA        -79.9056   26.2593  -77.6215 C.3       2 UNK         0.0269 
     63 CB        -80.7051   26.9992  -78.7053 C.3       2 UNK        -0.1926 
     64 N         -79.6060   27.1852  -76.5274 N.am      2 UNK        -0.4687 
     65 C         -78.8705   26.8967  -75.4424 C.2       1 UNK         0.5165 
     66 O         -78.3247   25.8029  -75.2703 O.2       1 UNK        -0.5079 
     67 H67       -79.8129   31.7271  -75.3586 H         1 UNK         0.0900 
     68 H68       -79.3249   31.5148  -77.0498 H         1 UNK         0.0900 
     69 H69       -78.1869   32.1958  -75.8755 H         1 UNK         0.0900 
     70 H70       -79.9195   29.7441  -74.3471 H         1 UNK         0.2959 
     71 H71       -77.7120   28.0191  -74.0410 H         1 UNK         0.1079 
     72 H72       -80.6548   27.3967  -73.4326 H         1 UNK         0.0837 
     73 H73       -79.2623   26.6109  -72.7434 H         1 UNK         0.0837 
     74 H74       -79.2637   28.2533  -69.4529 H         1 UNK         0.0685 
     75 H75       -79.2276   26.8031  -70.4157 H         1 UNK         0.0685 
     76 H76       -77.1810   26.3424  -71.8652 H         1 UNK         0.1434 
     77 H77       -73.5156   28.1621  -70.5677 H         1 UNK         0.1329 
     78 H78       -77.2675   29.5270  -69.0132 H         1 UNK         0.1335 
     79 H79       -75.2804   30.5114  -68.1896 H         1 UNK         0.0680 
     80 H80       -73.8997   29.4423  -68.1564 H         1 UNK         0.0680 
     81 H81       -74.6698   33.0301  -70.8919 H         1 UNK         0.1032 
     82 H82       -75.8745   31.9496  -70.2491 H         1 UNK         0.1032 
     83 H83       -75.5765   30.3724  -72.0843 H         1 UNK         0.0461 
     84 H84       -76.5321   33.3176  -74.6588 H         1 UNK         0.3453 
     85 H85       -74.9003   32.7193  -74.4926 H         1 UNK         0.3453 
     86 H86       -73.0806   31.7228  -72.5889 H         1 UNK         0.2984 
     87 H87       -71.8054   31.1810  -74.4976 H         1 UNK         0.0554 
     88 H88       -70.2903   29.3255  -73.7721 H         1 UNK         0.0847 
     89 H89       -71.6766   28.3151  -73.3710 H         1 UNK         0.0847 
     90 H90       -71.3433   29.7691  -72.4406 H         1 UNK         0.0847 
     91 H91       -73.0562   29.0119  -75.9487 H         1 UNK         0.3141 
     92 H92       -72.3859   29.2573  -78.4248 H         1 UNK         0.0743 
     93 H93       -69.3830   28.6624  -78.5819 H         1 UNK         0.0784 
     94 H94       -70.5359   28.5186  -79.9091 H         1 UNK         0.0784 
     95 H95       -70.1854   30.0924  -79.2168 H         1 UNK         0.0784 
     96 H96       -70.8419   26.8458  -77.7890 H         1 UNK         0.3213 
     97 H97       -72.1933   24.8512  -77.7324 H         1 UNK         0.0855 
     98 H98       -72.5250   25.7221  -74.8012 H         1 UNK         0.0814 
     99 H99       -71.0073   25.4580  -75.6434 H         1 UNK         0.0814 
    100 H100      -72.0672   24.0986  -75.3125 H         1 UNK         0.0814 
    101 H101      -74.6116   25.0125  -76.0113 H         1 UNK         0.3105 
    102 H102      -76.8519   24.7058  -77.9762 H         1 UNK         0.0547 
    103 H103      -76.6128   22.7973  -79.4855 H         1 UNK         0.0837 
    104 H104      -76.0294   21.7648  -78.1924 H         1 UNK         0.0837 
    105 H105      -77.6979   22.3259  -78.1877 H         1 UNK         0.0837 
    106 H106      -77.1807   24.4678  -75.8211 H         1 UNK         0.3020 
    107 H107      -76.4201   21.9269  -73.4648 H         1 UNK         0.1245 
    108 H108      -74.7444   23.3977  -72.7778 H         1 UNK         0.0781 
    109 H109      -76.1764   23.9986  -71.9989 H         1 UNK         0.0781 
    110 H110      -73.6458   26.9223  -72.7330 H         1 UNK         0.0836 
    111 H111      -73.8983   25.5260  -71.7154 H         1 UNK         0.0836 
    112 H112      -78.3324   23.9352  -74.4754 H         1 UNK         0.3022 
    113 H113      -80.8905   21.8288  -73.1177 H         1 UNK         0.0747 
    114 H114      -82.0606   23.8999  -72.6529 H         1 UNK         0.0793 
    115 H115      -80.7020   23.8234  -71.5417 H         1 UNK         0.0793 
    116 H116      -80.6246   24.8645  -72.9592 H         1 UNK         0.0793 
    117 H117      -81.0071   23.8714  -75.1144 H         1 UNK         0.3047 
    118 H118      -80.2400   21.8131  -77.9091 H         1 UNK         0.0822 
    119 H119      -82.4973   22.5757  -78.6112 H         1 UNK         0.0807 
    120 H120      -82.9055   22.9715  -76.9427 H         1 UNK         0.0807 
    121 H121      -82.6015   21.3056  -77.4031 H         1 UNK         0.0807 
    122 H122      -79.5476   23.8453  -78.2926 H         1 UNK         0.2946 
    123 H123      -78.9545   25.9355  -78.0479 H         1 UNK         0.1144 
    124 H124      -80.1507   27.8532  -79.0951 H         1 UNK         0.0793 
    125 H125      -81.6599   27.3636  -78.3235 H         1 UNK         0.0793 
    126 H126      -80.9213   26.3422  -79.5490 H         1 UNK         0.0793 
    127 H127      -80.0381   28.0960  -76.5696 H         1 UNK         0.2896 
@<TRIPOS>BOND
     1    1    2 1    
     2    1   67 1    
     3    1   68 1    
     4    1   69 1    
     5    2    3 2    
     6    2    4 am   BACKBONE|DICT|INTERRES
     7    4    5 1    
     8    4   70 1    
     9    5    6 1    
    10    5   65 1    
    11    5   71 1    
    12    6    7 1    
    13    6   72 1    
    14    6   73 1    
    15    7    8 1    
    16    8    9 1    
    17    8   74 1    
    18    8   75 1    
    19    9   10 ar   
    20    9   14 ar   
    21   10   11 ar   
    22   10   76 1    
    23   11   12 ar   
    24   11   48 1    
    25   12   13 ar   
    26   12   77 1    
    27   13   14 ar   
    28   13   15 1    
    29   14   78 1    
    30   15   16 1    
    31   15   79 1    
    32   15   80 1    
    33   16   17 1    
    34   17   18 1    
    35   17   81 1    
    36   17   82 1    
    37   18   19 1    
    38   18   22 1    
    39   18   83 1    
    40   19   20 am   BACKBONE|DICT|INTERRES
    41   19   21 2    
    42   20   84 1    
    43   20   85 1    
    44   22   23 am   BACKBONE|DICT|INTERRES
    45   22   86 1    
    46   23   24 2    
    47   23   25 1    
    48   25   26 1    
    49   25   27 1    
    50   25   87 1    
    51   26   88 1    
    52   26   89 1    
    53   26   90 1    
    54   27   28 am   BACKBONE|DICT|INTERRES
    55   27   91 1    
    56   28   29 2    
    57   28   30 1    
    58   30   31 1    
    59   30   32 1    
    60   30   92 1    
    61   31   93 1    
    62   31   94 1    
    63   31   95 1    
    64   32   33 am   BACKBONE|DICT|INTERRES
    65   32   96 1    
    66   33   34 2    
    67   33   35 1    
    68   35   36 1    
    69   35   37 1    
    70   35   97 1    
    71   36   98 1    
    72   36   99 1    
    73   36  100 1    
    74   37   38 am   BACKBONE|DICT|INTERRES
    75   37  101 1    
    76   38   39 2    
    77   38   40 1    
    78   40   41 1    
    79   40   42 1    
    80   40  102 1    
    81   41  103 1    
    82   41  104 1    
    83   41  105 1    
    84   42   43 am   BACKBONE|DICT|INTERRES
    85   42  106 1    
    86   43   44 2    
    87   43   45 1    
    88   45   46 1    
    89   45   49 1    
    90   45  107 1    
    91   46   47 1    
    92   46  108 1    
    93   46  109 1    
    94   47   48 1    
    95   48  110 1    
    96   48  111 1    
    97   49   50 am   BACKBONE|DICT|INTERRES
    98   49  112 1    
    99   50   51 2    
   100   50   52 1    
   101   52   53 1    
   102   52   54 1    
   103   52  113 1    
   104   53  114 1    
   105   53  115 1    
   106   53  116 1    
   107   54   55 am   BACKBONE|DICT|INTERRES
   108   54  117 1    
   109   55   56 2    
   110   55   57 1    
   111   57   58 1    
   112   57   59 1    
   113   57  118 1    
   114   58  119 1    
   115   58  120 1    
   116   58  121 1    
   117   59   60 am   BACKBONE|DICT|INTERRES
   118   59  122 1    
   119   60   61 2    
   120   60   62 1    
   121   62   63 1    
   122   62   64 1    
   123   62  123 1    
   124   63  124 1    
   125   63  125 1    
   126   63  126 1    
   127   64   65 am   BACKBONE|DICT|INTERRES
   128   64  127 1    
   129   65   66 2    
@<TRIPOS>SUBSTRUCTURE
     1 UNK         1 GROUP             0       ****    0 ROOT    
