@<TRIPOS>MOLECULE
3R135
127   129    1
SMALL
USER_CHARGES


@<TRIPOS>ATOM
      1 CA        -83.2105   26.9736  -71.2798 C.3       0 UNK        -0.1998 
      2 C         -83.5903   27.2912  -72.7182 C.2       0 UNK         0.4909 
      3 O         -84.7063   26.9874  -73.1403 O.2       0 UNK        -0.5240 
      4 N         -82.6684   27.9008  -73.4737 N.am      1 UNK        -0.4739 
      5 CA        -82.8281   28.2398  -74.8943 C.3       1 UNK         0.0864 
      6 C6        -81.8643   29.3738  -75.3327 C.3       11 UNK        -0.0881 
      7 S7        -80.1201   29.0732  -74.8814 S.3       11 UNK        -0.2682 
      8 C8        -79.9109   30.2451  -73.5069 C.3       11 UNK         0.0289 
      9 C9        -78.6686   29.9193  -72.6946 C.ar      11 UNK        -0.0687 
     10 C10       -78.7163   28.9121  -71.7281 C.ar      11 UNK        -0.0823 
     11 C11       -77.5871   28.6105  -70.9645 C.ar      11 UNK        -0.0830 
     12 C12       -76.4119   29.3425  -71.1548 C.ar      11 UNK        -0.1021 
     13 C13       -76.3330   30.3295  -72.1474 C.ar      11 UNK        -0.0753 
     14 C14       -77.4749   30.6169  -72.9044 C.ar      11 UNK        -0.0933 
     15 C15       -75.0463   31.1064  -72.4442 C.3       11 UNK         0.0166 
     16 S16       -73.4958   30.3681  -71.8135 S.3       11 UNK        -0.2615 
     17 C17       -73.4514   28.7741  -72.7044 C.3       11 UNK        -0.0865 
     18 CA        -72.0100   28.2295  -72.8672 C.3       10 UNK         0.0862 
     19 C         -72.0067   26.7204  -73.2559 C.2       10 UNK         0.5551 
     20 N         -71.3724   26.3008  -74.3446 N.am      10 UNK        -0.7319 
     21 O         -72.5694   25.9050  -72.5297 O.2       10 UNK        -0.5018 
     22 N         -71.2176   29.0872  -73.7594 N.am      10 UNK        -0.4509 
     23 C         -69.8853   29.2116  -73.7283 C.2       10 UNK         0.4899 
     24 O         -69.1698   28.6895  -72.8717 O.2       10 UNK        -0.4839 
     25 CA        -69.2492   30.0623  -74.8505 C.3       9 UNK         0.0222 
     26 CB        -67.7622   29.7195  -75.0853 C.3       9 UNK        -0.1966 
     27 N         -69.9978   30.0193  -76.1168 N.am      9 UNK        -0.4218 
     28 C         -70.2927   28.9270  -76.8374 C.2       9 UNK         0.5020 
     29 O         -69.9267   27.7845  -76.5483 O.2       9 UNK        -0.5274 
     30 CA        -71.1543   29.1547  -78.0915 C.3       8 UNK         0.0270 
     31 CB        -70.2638   29.3095  -79.3351 C.3       8 UNK        -0.1976 
     32 N         -72.1013   28.0577  -78.3085 N.am      8 UNK        -0.4313 
     33 C         -73.0915   27.7246  -77.4696 C.2       8 UNK         0.5041 
     34 O         -73.3551   28.3532  -76.4403 O.2       8 UNK        -0.5577 
     35 CA        -73.8912   26.4631  -77.8479 C.3       7 UNK         0.0284 
     36 CB        -73.0611   25.1951  -77.5884 C.3       7 UNK        -0.1958 
     37 N         -75.1541   26.3646  -77.1124 N.am      7 UNK        -0.4454 
     38 C         -76.2322   27.1237  -77.3561 C.2       7 UNK         0.5089 
     39 O         -76.2928   27.9284  -78.2881 O.2       7 UNK        -0.5125 
     40 CA        -77.4626   26.9602  -76.4410 C.3       6 UNK         0.0408 
     41 CB        -78.6880   26.4906  -77.2428 C.3       6 UNK        -0.1791 
     42 N         -77.2519   26.0509  -75.3107 N.am      6 UNK        -0.4762 
     43 C         -76.6005   26.3844  -74.1850 C.2       6 UNK         0.5007 
     44 O         -76.1236   27.4988  -73.9950 O.2       6 UNK        -0.5032 
     45 CA        -76.4037   25.2883  -73.1121 C.3       5 UNK         0.0783 
     46 C46       -77.3953   25.4379  -71.9207 C.3       11 UNK        -0.0857 
     47 S47       -76.5719   26.0803  -70.4223 S.3       11 UNK        -0.2512 
     48 C48       -77.6303   27.4853  -69.9417 C.3       11 UNK         0.0225 
     49 N         -76.4422   23.9351  -73.6763 N.am      5 UNK        -0.4615 
     50 C         -75.5347   23.4349  -74.5259 C.2       4 UNK         0.5053 
     51 O         -74.5456   24.0565  -74.9083 O.2       4 UNK        -0.5105 
     52 CA        -75.7879   22.0188  -75.0729 C.3       4 UNK         0.0263 
     53 CB        -74.9908   20.9821  -74.2653 C.3       4 UNK        -0.1981 
     54 N         -77.2034   21.6316  -75.0972 N.am      4 UNK        -0.4224 
     55 C         -78.1566   22.2485  -75.8102 C.2       3 UNK         0.4895 
     56 O         -77.9353   23.2215  -76.5342 O.2       3 UNK        -0.5091 
     57 CA        -79.5840   21.6740  -75.7107 C.3       3 UNK         0.0250 
     58 CB        -79.8969   21.0286  -74.3402 C.3       3 UNK        -0.1996 
     59 N         -80.6137   22.6584  -76.0673 N.am      3 UNK        -0.4254 
     60 C         -80.9039   23.8020  -75.4294 C.2       2 UNK         0.5004 
     61 O         -80.3347   24.1996  -74.4077 O.2       2 UNK        -0.5226 
     62 CA        -82.0504   24.6236  -76.0352 C.3       2 UNK         0.0269 
     63 CB        -83.3931   23.8699  -75.9352 C.3       2 UNK        -0.1926 
     64 N         -82.1575   25.9036  -75.3407 N.am      2 UNK        -0.4687 
     65 C         -82.7391   27.0084  -75.8246 C.2       1 UNK         0.5165 
     66 O         -83.2188   27.0780  -76.9577 O.2       1 UNK        -0.5079 
     67 H67       -82.2038   27.3139  -71.0379 H         1 UNK         0.0900 
     68 H68       -83.9051   27.4566  -70.5931 H         1 UNK         0.0900 
     69 H69       -83.2550   25.8983  -71.1095 H         1 UNK         0.0900 
     70 H70       -81.7620   28.1174  -73.0858 H         1 UNK         0.2959 
     71 H71       -83.8435   28.6223  -75.0229 H         1 UNK         0.1079 
     72 H72       -82.1907   30.3150  -74.8877 H         1 UNK         0.0837 
     73 H73       -81.9203   29.5367  -76.4110 H         1 UNK         0.0837 
     74 H74       -79.8571   31.2600  -73.9041 H         1 UNK         0.0685 
     75 H75       -80.7859   30.2150  -72.8557 H         1 UNK         0.0685 
     76 H76       -79.6314   28.3565  -71.5792 H         1 UNK         0.1434 
     77 H77       -75.5516   29.1056  -70.5461 H         1 UNK         0.1329 
     78 H78       -77.4328   31.3824  -73.6671 H         1 UNK         0.1335 
     79 H79       -74.9427   31.2365  -73.5227 H         1 UNK         0.0680 
     80 H80       -75.1446   32.1066  -72.0207 H         1 UNK         0.0680 
     81 H81       -73.9228   28.8864  -73.6827 H         1 UNK         0.1032 
     82 H82       -74.0733   28.0679  -72.1511 H         1 UNK         0.1032 
     83 H83       -71.5442   28.2625  -71.8803 H         1 UNK         0.0461 
     84 H84       -71.3830   25.3179  -74.5613 H         1 UNK         0.3453 
     85 H85       -70.9005   26.9501  -74.9637 H         1 UNK         0.3453 
     86 H86       -71.7279   29.5157  -74.5181 H         1 UNK         0.2984 
     87 H87       -69.2967   31.0959  -74.5049 H         1 UNK         0.0554 
     88 H88       -67.1737   29.8844  -74.1820 H         1 UNK         0.0847 
     89 H89       -67.3295   30.3416  -75.8686 H         1 UNK         0.0847 
     90 H90       -67.6282   28.6762  -75.3733 H         1 UNK         0.0847 
     91 H91       -70.3500   30.9102  -76.4410 H         1 UNK         0.3141 
     92 H92       -71.7346   30.0705  -77.9603 H         1 UNK         0.0743 
     93 H93       -69.6725   28.4118  -79.5218 H         1 UNK         0.0784 
     94 H94       -70.8567   29.5140  -80.2269 H         1 UNK         0.0784 
     95 H95       -69.5655   30.1391  -79.2154 H         1 UNK         0.0784 
     96 H96       -71.9270   27.4680  -79.1092 H         1 UNK         0.3213 
     97 H97       -74.1223   26.5129  -78.9143 H         1 UNK         0.0855 
     98 H98       -72.7526   25.1268  -76.5453 H         1 UNK         0.0814 
     99 H99       -72.1543   25.1830  -78.1940 H         1 UNK         0.0814 
    100 H100      -73.6236   24.2930  -77.8300 H         1 UNK         0.0814 
    101 H101      -75.1601   25.7607  -76.3000 H         1 UNK         0.3105 
    102 H102      -77.6853   27.9522  -76.0450 H         1 UNK         0.0547 
    103 H103      -78.5207   25.5192  -77.7079 H         1 UNK         0.0837 
    104 H104      -78.9279   27.1963  -78.0388 H         1 UNK         0.0837 
    105 H105      -79.5688   26.4155  -76.6064 H         1 UNK         0.0837 
    106 H106      -77.5844   25.1002  -75.4276 H         1 UNK         0.3020 
    107 H107      -75.3832   25.4261  -72.7445 H         1 UNK         0.1245 
    108 H108      -77.8243   24.4733  -71.6450 H         1 UNK         0.0781 
    109 H109      -78.2545   26.0603  -72.1784 H         1 UNK         0.0781 
    110 H110      -77.2923   27.8675  -68.9774 H         1 UNK         0.0836 
    111 H111      -78.6506   27.1303  -69.7883 H         1 UNK         0.0836 
    112 H112      -77.2385   23.3654  -73.4323 H         1 UNK         0.3022 
    113 H113      -75.4247   22.0028  -76.1028 H         1 UNK         0.0747 
    114 H114      -75.0806   19.9855  -74.6980 H         1 UNK         0.0793 
    115 H115      -73.9288   21.2320  -74.2516 H         1 UNK         0.0793 
    116 H116      -75.3266   20.9318  -73.2287 H         1 UNK         0.0793 
    117 H117      -77.4640   20.8350  -74.5340 H         1 UNK         0.3047 
    118 H118      -79.6444   20.8903  -76.4672 H         1 UNK         0.0822 
    119 H119      -80.9373   20.7073  -74.2867 H         1 UNK         0.0807 
    120 H120      -79.7236   21.7195  -73.5141 H         1 UNK         0.0807 
    121 H121      -79.2876   20.1417  -74.1642 H         1 UNK         0.0807 
    122 H122      -81.1247   22.4493  -76.9136 H         1 UNK         0.2946 
    123 H123      -81.8088   24.8086  -77.0846 H         1 UNK         0.1144 
    124 H124      -83.3577   22.9142  -76.4590 H         1 UNK         0.0793 
    125 H125      -84.2070   24.4435  -76.3789 H         1 UNK         0.0793 
    126 H126      -83.6591   23.6647  -74.8974 H         1 UNK         0.0793 
    127 H127      -81.7209   25.9260  -74.4277 H         1 UNK         0.2896 
@<TRIPOS>BOND
     1    1    2 1    
     2    1   67 1    
     3    1   68 1    
     4    1   69 1    
     5    2    3 2    
     6    2    4 am   BACKBONE|DICT|INTERRES
     7    4    5 1    
     8    4   70 1    
     9    5    6 1    
    10    5   65 1    
    11    5   71 1    
    12    6    7 1    
    13    6   72 1    
    14    6   73 1    
    15    7    8 1    
    16    8    9 1    
    17    8   74 1    
    18    8   75 1    
    19    9   10 ar   
    20    9   14 ar   
    21   10   11 ar   
    22   10   76 1    
    23   11   12 ar   
    24   11   48 1    
    25   12   13 ar   
    26   12   77 1    
    27   13   14 ar   
    28   13   15 1    
    29   14   78 1    
    30   15   16 1    
    31   15   79 1    
    32   15   80 1    
    33   16   17 1    
    34   17   18 1    
    35   17   81 1    
    36   17   82 1    
    37   18   19 1    
    38   18   22 1    
    39   18   83 1    
    40   19   20 am   BACKBONE|DICT|INTERRES
    41   19   21 2    
    42   20   84 1    
    43   20   85 1    
    44   22   23 am   BACKBONE|DICT|INTERRES
    45   22   86 1    
    46   23   24 2    
    47   23   25 1    
    48   25   26 1    
    49   25   27 1    
    50   25   87 1    
    51   26   88 1    
    52   26   89 1    
    53   26   90 1    
    54   27   28 am   BACKBONE|DICT|INTERRES
    55   27   91 1    
    56   28   29 2    
    57   28   30 1    
    58   30   31 1    
    59   30   32 1    
    60   30   92 1    
    61   31   93 1    
    62   31   94 1    
    63   31   95 1    
    64   32   33 am   BACKBONE|DICT|INTERRES
    65   32   96 1    
    66   33   34 2    
    67   33   35 1    
    68   35   36 1    
    69   35   37 1    
    70   35   97 1    
    71   36   98 1    
    72   36   99 1    
    73   36  100 1    
    74   37   38 am   BACKBONE|DICT|INTERRES
    75   37  101 1    
    76   38   39 2    
    77   38   40 1    
    78   40   41 1    
    79   40   42 1    
    80   40  102 1    
    81   41  103 1    
    82   41  104 1    
    83   41  105 1    
    84   42   43 am   BACKBONE|DICT|INTERRES
    85   42  106 1    
    86   43   44 2    
    87   43   45 1    
    88   45   46 1    
    89   45   49 1    
    90   45  107 1    
    91   46   47 1    
    92   46  108 1    
    93   46  109 1    
    94   47   48 1    
    95   48  110 1    
    96   48  111 1    
    97   49   50 am   BACKBONE|DICT|INTERRES
    98   49  112 1    
    99   50   51 2    
   100   50   52 1    
   101   52   53 1    
   102   52   54 1    
   103   52  113 1    
   104   53  114 1    
   105   53  115 1    
   106   53  116 1    
   107   54   55 am   BACKBONE|DICT|INTERRES
   108   54  117 1    
   109   55   56 2    
   110   55   57 1    
   111   57   58 1    
   112   57   59 1    
   113   57  118 1    
   114   58  119 1    
   115   58  120 1    
   116   58  121 1    
   117   59   60 am   BACKBONE|DICT|INTERRES
   118   59  122 1    
   119   60   61 2    
   120   60   62 1    
   121   62   63 1    
   122   62   64 1    
   123   62  123 1    
   124   63  124 1    
   125   63  125 1    
   126   63  126 1    
   127   64   65 am   BACKBONE|DICT|INTERRES
   128   64  127 1    
   129   65   66 2    
@<TRIPOS>SUBSTRUCTURE
     1 UNK         1 GROUP             0       ****    0 ROOT    
