@<TRIPOS>MOLECULE
3R135
127   129    1
SMALL
USER_CHARGES


@<TRIPOS>ATOM
      1 CA        -84.0888   30.8479  -77.5151 C.3       0 UNK        -0.1998 
      2 C         -83.0510   29.8173  -77.0957 C.2       0 UNK         0.4909 
      3 O         -82.3473   29.2752  -77.9492 O.2       0 UNK        -0.5240 
      4 N         -82.9443   29.5514  -75.7879 N.am      1 UNK        -0.4739 
      5 CA        -82.0374   28.5533  -75.2100 C.3       1 UNK         0.0864 
      6 C6        -81.7155   28.8622  -73.7222 C.3       11 UNK        -0.0881 
      7 S7        -80.7188   30.3796  -73.5208 S.3       11 UNK        -0.2682 
      8 C8        -79.0614   29.8306  -74.0525 C.3       11 UNK         0.0289 
      9 C9        -78.1937   29.3178  -72.9091 C.ar      11 UNK        -0.0687 
     10 C10       -78.4084   28.0568  -72.3419 C.ar      11 UNK        -0.0823 
     11 C11       -77.6063   27.6056  -71.2901 C.ar      11 UNK        -0.0830 
     12 C12       -76.5672   28.4142  -70.8216 C.ar      11 UNK        -0.1021 
     13 C13       -76.2972   29.6524  -71.4188 C.ar      11 UNK        -0.0753 
     14 C14       -77.1311   30.0996  -72.4475 C.ar      11 UNK        -0.0933 
     15 C15       -75.1324   30.5538  -71.0024 C.3       11 UNK         0.0166 
     16 S16       -73.9253   29.8561  -69.8211 S.3       11 UNK        -0.2615 
     17 C17       -73.1635   28.4835  -70.7538 C.3       11 UNK        -0.0865 
     18 CA        -72.0952   28.9541  -71.7760 C.3       10 UNK         0.0862 
     19 C         -70.9545   27.9142  -71.9163 C.2       10 UNK         0.5551 
     20 N         -69.7217   28.2888  -71.6050 N.am      10 UNK        -0.7319 
     21 O         -71.1912   26.7602  -72.2660 O.2       10 UNK        -0.5018 
     22 N         -72.6963   29.1722  -73.0951 N.am      10 UNK        -0.4509 
     23 C         -72.2557   30.0508  -74.0001 C.2       10 UNK         0.4899 
     24 O         -71.4062   30.9137  -73.7707 O.2       10 UNK        -0.4839 
     25 CA        -72.8540   29.8949  -75.4099 C.3       9 UNK         0.0222 
     26 CB        -72.3784   30.9779  -76.4008 C.3       9 UNK        -0.1966 
     27 N         -72.6141   28.5480  -75.9431 N.am      9 UNK        -0.4218 
     28 C         -71.4323   27.9480  -76.1636 C.2       9 UNK         0.5020 
     29 O         -70.3395   28.4969  -76.0162 O.2       9 UNK        -0.5274 
     30 CA        -71.4583   26.4756  -76.6175 C.3       8 UNK         0.0270 
     31 CB        -71.0907   25.5482  -75.4485 C.3       8 UNK        -0.1976 
     32 N         -72.7471   26.0513  -77.1666 N.am      8 UNK        -0.4313 
     33 C         -73.2219   26.4027  -78.3683 C.2       8 UNK         0.5041 
     34 O         -72.5960   27.0798  -79.1846 O.2       8 UNK        -0.5577 
     35 CA        -74.6518   25.9448  -78.6988 C.3       7 UNK         0.0284 
     36 CB        -74.6632   24.4886  -79.1919 C.3       7 UNK        -0.1958 
     37 N         -75.5637   26.0895  -77.5603 N.am      7 UNK        -0.4454 
     38 C         -75.9469   27.2630  -77.0366 C.2       7 UNK         0.5089 
     39 O         -75.5811   28.3592  -77.4586 O.2       7 UNK        -0.5125 
     40 CA        -76.8837   27.1990  -75.8232 C.3       6 UNK         0.0408 
     41 CB        -78.3229   26.9244  -76.2832 C.3       6 UNK        -0.1791 
     42 N         -76.4704   26.1781  -74.8609 N.am      6 UNK        -0.4762 
     43 C         -75.3815   26.2643  -74.0795 C.2       6 UNK         0.5007 
     44 O         -74.6445   27.2508  -74.0378 O.2       6 UNK        -0.5032 
     45 CA        -75.0073   25.0118  -73.2567 C.3       5 UNK         0.0783 
     46 C46       -75.5557   25.0569  -71.8081 C.3       11 UNK        -0.0857 
     47 S47       -77.3682   24.8513  -71.6942 S.3       11 UNK        -0.2512 
     48 C48       -77.8720   26.2523  -70.6433 C.3       11 UNK         0.0225 
     49 N         -75.3628   23.7611  -73.9364 N.am      5 UNK        -0.4615 
     50 C         -74.8506   23.3497  -75.1036 C.2       4 UNK         0.5053 
     51 O         -73.9888   23.9713  -75.7228 O.2       4 UNK        -0.5105 
     52 CA        -75.4059   22.0469  -75.7025 C.3       4 UNK         0.0263 
     53 CB        -74.4849   20.8668  -75.3559 C.3       4 UNK        -0.1981 
     54 N         -76.7760   21.7366  -75.2812 N.am      4 UNK        -0.4224 
     55 C         -77.8613   22.4525  -75.6095 C.2       3 UNK         0.4895 
     56 O         -77.8142   23.4586  -76.3211 O.2       3 UNK        -0.5091 
     57 CA        -79.2079   21.9195  -75.0715 C.3       3 UNK         0.0250 
     58 CB        -79.1375   21.5572  -73.5697 C.3       3 UNK        -0.1996 
     59 N         -80.3580   22.8010  -75.3251 N.am      3 UNK        -0.4254 
     60 C         -80.5491   24.0411  -74.8532 C.2       2 UNK         0.5004 
     61 O         -79.7409   24.6565  -74.1526 O.2       2 UNK        -0.5226 
     62 CA        -81.8956   24.6995  -75.1848 C.3       2 UNK         0.0269 
     63 CB        -82.9877   24.1993  -74.2168 C.3       2 UNK        -0.1926 
     64 N         -81.7103   26.1419  -75.0604 N.am      2 UNK        -0.4687 
     65 C         -82.5663   27.1130  -75.3949 C.2       1 UNK         0.5165 
     66 O         -83.7048   26.9058  -75.8237 O.2       1 UNK        -0.5079 
     67 H67       -83.6079   31.6727  -78.0403 H         1 UNK         0.0900 
     68 H68       -84.8173   30.3941  -78.1865 H         1 UNK         0.0900 
     69 H69       -84.6254   31.2578  -76.6596 H         1 UNK         0.0900 
     70 H70       -83.5585   30.0151  -75.1341 H         1 UNK         0.2959 
     71 H71       -81.1087   28.5927  -75.7812 H         1 UNK         0.1079 
     72 H72       -81.1910   28.0408  -73.2381 H         1 UNK         0.0837 
     73 H73       -82.6404   28.9833  -73.1554 H         1 UNK         0.0837 
     74 H74       -78.5721   30.6753  -74.5401 H         1 UNK         0.0685 
     75 H75       -79.1453   29.0675  -74.8192 H         1 UNK         0.0685 
     76 H76       -79.1917   27.4139  -72.7130 H         1 UNK         0.1434 
     77 H77       -75.9624   28.0600  -69.9999 H         1 UNK         0.1329 
     78 H78       -76.9421   31.0632  -72.9010 H         1 UNK         0.1335 
     79 H79       -74.5920   30.8761  -71.8932 H         1 UNK         0.0680 
     80 H80       -75.5478   31.4583  -70.5560 H         1 UNK         0.0680 
     81 H81       -73.9260   27.8806  -71.2449 H         1 UNK         0.1032 
     82 H82       -72.7221   27.8280  -69.9999 H         1 UNK         0.1032 
     83 H83       -71.6609   29.8899  -71.4173 H         1 UNK         0.0461 
     84 H84       -69.5229   29.2343  -71.3168 H         1 UNK         0.3453 
     85 H85       -68.9727   27.6183  -71.6775 H         1 UNK         0.3453 
     86 H86       -73.3740   28.4744  -73.3953 H         1 UNK         0.2984 
     87 H87       -73.9357   29.9951  -75.3049 H         1 UNK         0.0554 
     88 H88       -72.6391   31.9741  -76.0416 H         1 UNK         0.0847 
     89 H89       -72.8461   30.8519  -77.3773 H         1 UNK         0.0847 
     90 H90       -71.2973   30.9573  -76.5416 H         1 UNK         0.0847 
     91 H91       -73.4458   27.9876  -76.0722 H         1 UNK         0.3141 
     92 H92       -70.7004   26.3609  -77.3954 H         1 UNK         0.0743 
     93 H93       -70.1302   25.8256  -75.0117 H         1 UNK         0.0784 
     94 H94       -71.8352   25.5946  -74.6529 H         1 UNK         0.0784 
     95 H95       -71.0136   24.5104  -75.7732 H         1 UNK         0.0784 
     96 H96       -73.3001   25.4151  -76.5925 H         1 UNK         0.3213 
     97 H97       -75.0242   26.5796  -79.5061 H         1 UNK         0.0855 
     98 H98       -74.2921   23.7985  -78.4338 H         1 UNK         0.0814 
     99 H99       -74.0302   24.3730  -80.0726 H         1 UNK         0.0814 
    100 H100      -75.6679   24.1713  -79.4719 H         1 UNK         0.0814 
    101 H101      -75.9109   25.2405  -77.1354 H         1 UNK         0.3105 
    102 H102      -76.8566   28.1684  -75.3219 H         1 UNK         0.0547 
    103 H103      -78.4059   25.9876  -76.8346 H         1 UNK         0.0837 
    104 H104      -78.6836   27.7191  -76.9376 H         1 UNK         0.0837 
    105 H105      -78.9972   26.8650  -75.4325 H         1 UNK         0.0837 
    106 H106      -77.0260   25.3323  -74.8250 H         1 UNK         0.3020 
    107 H107      -73.9168   25.0261  -73.1842 H         1 UNK         0.1245 
    108 H108      -75.2501   25.9776  -71.3134 H         1 UNK         0.0781 
    109 H109      -75.0993   24.2554  -71.2254 H         1 UNK         0.0781 
    110 H110      -77.3661   26.1751  -69.6797 H         1 UNK         0.0836 
    111 H111      -78.9384   26.1620  -70.4318 H         1 UNK         0.0836 
    112 H112      -76.0855   23.2092  -73.4984 H         1 UNK         0.3022 
    113 H113      -75.4113   22.1667  -76.7879 H         1 UNK         0.0747 
    114 H114      -74.8105   19.9502  -75.8484 H         1 UNK         0.0793 
    115 H115      -73.4623   21.0614  -75.6832 H         1 UNK         0.0793 
    116 H116      -74.4528   20.6797  -74.2817 H         1 UNK         0.0793 
    117 H117      -76.8955   20.9128  -74.7094 H         1 UNK         0.3047 
    118 H118      -79.4116   21.0022  -75.6261 H         1 UNK         0.0822 
    119 H119      -80.1087   21.2307  -73.1975 H         1 UNK         0.0807 
    120 H120      -78.8210   22.4061  -72.9626 H         1 UNK         0.0807 
    121 H121      -78.4399   20.7412  -73.3803 H         1 UNK         0.0807 
    122 H122      -81.0753   22.4054  -75.9167 H         1 UNK         0.2946 
    123 H123      -82.1678   24.4647  -76.2160 H         1 UNK         0.1144 
    124 H124      -83.9644   24.6195  -74.4554 H         1 UNK         0.0793 
    125 H125      -82.7552   24.4586  -73.1831 H         1 UNK         0.0793 
    126 H126      -83.0889   23.1144  -74.2654 H         1 UNK         0.0793 
    127 H127      -80.7965   26.3726  -74.6895 H         1 UNK         0.2896 
@<TRIPOS>BOND
     1    1    2 1    
     2    1   67 1    
     3    1   68 1    
     4    1   69 1    
     5    2    3 2    
     6    2    4 am   BACKBONE|DICT|INTERRES
     7    4    5 1    
     8    4   70 1    
     9    5    6 1    
    10    5   65 1    
    11    5   71 1    
    12    6    7 1    
    13    6   72 1    
    14    6   73 1    
    15    7    8 1    
    16    8    9 1    
    17    8   74 1    
    18    8   75 1    
    19    9   10 ar   
    20    9   14 ar   
    21   10   11 ar   
    22   10   76 1    
    23   11   12 ar   
    24   11   48 1    
    25   12   13 ar   
    26   12   77 1    
    27   13   14 ar   
    28   13   15 1    
    29   14   78 1    
    30   15   16 1    
    31   15   79 1    
    32   15   80 1    
    33   16   17 1    
    34   17   18 1    
    35   17   81 1    
    36   17   82 1    
    37   18   19 1    
    38   18   22 1    
    39   18   83 1    
    40   19   20 am   BACKBONE|DICT|INTERRES
    41   19   21 2    
    42   20   84 1    
    43   20   85 1    
    44   22   23 am   BACKBONE|DICT|INTERRES
    45   22   86 1    
    46   23   24 2    
    47   23   25 1    
    48   25   26 1    
    49   25   27 1    
    50   25   87 1    
    51   26   88 1    
    52   26   89 1    
    53   26   90 1    
    54   27   28 am   BACKBONE|DICT|INTERRES
    55   27   91 1    
    56   28   29 2    
    57   28   30 1    
    58   30   31 1    
    59   30   32 1    
    60   30   92 1    
    61   31   93 1    
    62   31   94 1    
    63   31   95 1    
    64   32   33 am   BACKBONE|DICT|INTERRES
    65   32   96 1    
    66   33   34 2    
    67   33   35 1    
    68   35   36 1    
    69   35   37 1    
    70   35   97 1    
    71   36   98 1    
    72   36   99 1    
    73   36  100 1    
    74   37   38 am   BACKBONE|DICT|INTERRES
    75   37  101 1    
    76   38   39 2    
    77   38   40 1    
    78   40   41 1    
    79   40   42 1    
    80   40  102 1    
    81   41  103 1    
    82   41  104 1    
    83   41  105 1    
    84   42   43 am   BACKBONE|DICT|INTERRES
    85   42  106 1    
    86   43   44 2    
    87   43   45 1    
    88   45   46 1    
    89   45   49 1    
    90   45  107 1    
    91   46   47 1    
    92   46  108 1    
    93   46  109 1    
    94   47   48 1    
    95   48  110 1    
    96   48  111 1    
    97   49   50 am   BACKBONE|DICT|INTERRES
    98   49  112 1    
    99   50   51 2    
   100   50   52 1    
   101   52   53 1    
   102   52   54 1    
   103   52  113 1    
   104   53  114 1    
   105   53  115 1    
   106   53  116 1    
   107   54   55 am   BACKBONE|DICT|INTERRES
   108   54  117 1    
   109   55   56 2    
   110   55   57 1    
   111   57   58 1    
   112   57   59 1    
   113   57  118 1    
   114   58  119 1    
   115   58  120 1    
   116   58  121 1    
   117   59   60 am   BACKBONE|DICT|INTERRES
   118   59  122 1    
   119   60   61 2    
   120   60   62 1    
   121   62   63 1    
   122   62   64 1    
   123   62  123 1    
   124   63  124 1    
   125   63  125 1    
   126   63  126 1    
   127   64   65 am   BACKBONE|DICT|INTERRES
   128   64  127 1    
   129   65   66 2    
@<TRIPOS>SUBSTRUCTURE
     1 UNK         1 GROUP             0       ****    0 ROOT    
