@<TRIPOS>MOLECULE
3R135
127   129    1
SMALL
USER_CHARGES


@<TRIPOS>ATOM
      1 CA        -83.3989   26.3233  -76.9678 C.3       0 UNK        -0.1998 
      2 C         -82.3304   27.1227  -76.2385 C.2       0 UNK         0.4909 
      3 O         -81.4713   27.7253  -76.8831 O.2       0 UNK        -0.5240 
      4 N         -82.3681   27.1224  -74.8982 N.am      1 UNK        -0.4739 
      5 CA        -81.3957   27.7821  -74.0167 C.3       1 UNK         0.0864 
      6 C6        -81.8310   27.6863  -72.5270 C.3       11 UNK        -0.0881 
      7 S7        -81.5081   29.1502  -71.4726 S.3       11 UNK        -0.2682 
      8 C8        -79.8619   29.8007  -71.9454 C.3       11 UNK         0.0289 
      9 C9        -78.6466   28.9302  -71.6107 C.ar      11 UNK        -0.0687 
     10 C10       -78.7391   27.7075  -70.9324 C.ar      11 UNK        -0.0823 
     11 C11       -77.5996   26.9371  -70.6856 C.ar      11 UNK        -0.0830 
     12 C12       -76.3478   27.4071  -71.0896 C.ar      11 UNK        -0.1021 
     13 C13       -76.2323   28.6382  -71.7399 C.ar      11 UNK        -0.0753 
     14 C14       -77.3838   29.3855  -72.0060 C.ar      11 UNK        -0.0933 
     15 C15       -74.8623   29.1723  -72.1283 C.3       11 UNK         0.0166 
     16 S16       -74.3601   30.4984  -70.9886 S.3       11 UNK        -0.2615 
     17 C17       -72.5471   30.5210  -71.1813 C.3       11 UNK        -0.0865 
     18 CA        -72.0483   31.7226  -72.0366 C.3       10 UNK         0.0862 
     19 C         -70.5199   31.9946  -71.8605 C.2       10 UNK         0.5551 
     20 N         -69.8184   32.4978  -72.8692 N.am      10 UNK        -0.7319 
     21 O         -69.9641   31.7815  -70.7854 O.2       10 UNK        -0.5018 
     22 N         -72.5033   31.6658  -73.4410 N.am      10 UNK        -0.4509 
     23 C         -72.1509   30.7352  -74.3373 C.2       10 UNK         0.4899 
     24 O         -71.4604   29.7463  -74.0728 O.2       10 UNK        -0.4839 
     25 CA        -72.6200   30.9630  -75.7821 C.3       9 UNK         0.0222 
     26 CB        -71.9394   32.2107  -76.3866 C.3       9 UNK        -0.1966 
     27 N         -72.2725   29.7639  -76.5378 N.am      9 UNK        -0.4218 
     28 C         -72.5557   29.4672  -77.8109 C.2       9 UNK         0.5020 
     29 O         -73.1906   30.1983  -78.5718 O.2       9 UNK        -0.5274 
     30 CA        -72.0399   28.1068  -78.3145 C.3       8 UNK         0.0270 
     31 CB        -70.5860   28.2245  -78.8018 C.3       8 UNK        -0.1976 
     32 N         -72.1319   27.0669  -77.2830 N.am      8 UNK        -0.4313 
     33 C         -73.2860   26.5006  -76.9099 C.2       8 UNK         0.5041 
     34 O         -74.3647   26.7307  -77.4606 O.2       8 UNK        -0.5577 
     35 CA        -73.2324   25.5576  -75.7005 C.3       7 UNK         0.0284 
     36 CB        -73.5074   26.3428  -74.4056 C.3       7 UNK        -0.1958 
     37 N         -74.2617   24.5339  -75.8505 N.am      7 UNK        -0.4454 
     38 C         -74.0494   23.2437  -76.1279 C.2       7 UNK         0.5089 
     39 O         -72.9304   22.7329  -76.2101 O.2       7 UNK        -0.5125 
     40 CA        -75.3132   22.3913  -76.3579 C.3       6 UNK         0.0408 
     41 CB        -75.0233   20.8790  -76.4635 C.3       6 UNK        -0.1791 
     42 N         -76.3626   22.6672  -75.3700 N.am      6 UNK        -0.4762 
     43 C         -76.3335   22.4432  -74.0470 C.2       6 UNK         0.5007 
     44 O         -75.3930   21.8996  -73.4666 O.2       6 UNK        -0.5032 
     45 CA        -77.5595   22.8942  -73.2195 C.3       5 UNK         0.0783 
     46 C46       -77.1880   24.0506  -72.2603 C.3       11 UNK        -0.0857 
     47 S47       -78.5037   24.3427  -71.0323 S.3       11 UNK        -0.2512 
     48 C48       -77.7284   25.6007  -69.9706 C.3       11 UNK         0.0225 
     49 N         -78.7173   23.2422  -74.0536 N.am      5 UNK        -0.4615 
     50 C         -79.5149   22.3579  -74.6668 C.2       4 UNK         0.5053 
     51 O         -79.3929   21.1374  -74.5635 O.2       4 UNK        -0.5105 
     52 CA        -80.6115   22.9344  -75.5758 C.3       4 UNK         0.0263 
     53 CB        -81.8503   23.3396  -74.7600 C.3       4 UNK        -0.1981 
     54 N         -80.1176   24.0818  -76.3414 N.am      4 UNK        -0.4224 
     55 C         -79.3792   23.9787  -77.4570 C.2       3 UNK         0.4895 
     56 O         -79.1030   22.9064  -77.9947 O.2       3 UNK        -0.5091 
     57 CA        -78.8401   25.2798  -78.0791 C.3       3 UNK         0.0250 
     58 CB        -79.7573   25.7568  -79.2163 C.3       3 UNK        -0.1996 
     59 N         -78.6616   26.3599  -77.1058 N.am      3 UNK        -0.4254 
     60 C         -77.7075   26.3659  -76.1623 C.2       2 UNK         0.5004 
     61 O         -76.8858   25.4642  -76.0208 O.2       2 UNK        -0.5226 
     62 CA        -77.7187   27.5272  -75.1548 C.3       2 UNK         0.0269 
     63 CB        -76.9043   28.7184  -75.6842 C.3       2 UNK        -0.1926 
     64 N         -79.0719   27.9678  -74.8064 N.am      2 UNK        -0.4687 
     65 C         -79.9973   27.1754  -74.2473 C.2       1 UNK         0.5165 
     66 O         -79.8044   25.9870  -73.9807 O.2       1 UNK        -0.5079 
     67 H67       -82.9425   25.4969  -77.5121 H         1 UNK         0.0900 
     68 H68       -84.1392   25.9112  -76.2824 H         1 UNK         0.0900 
     69 H69       -83.9181   26.9586  -77.6847 H         1 UNK         0.0900 
     70 H70       -83.0895   26.5933  -74.4299 H         1 UNK         0.2959 
     71 H71       -81.3850   28.8327  -74.3125 H         1 UNK         0.1079 
     72 H72       -81.4250   26.7965  -72.0416 H         1 UNK         0.0837 
     73 H73       -82.9121   27.5475  -72.4742 H         1 UNK         0.0837 
     74 H74       -79.8583   30.0461  -73.0068 H         1 UNK         0.0685 
     75 H75       -79.7354   30.7516  -71.4259 H         1 UNK         0.0685 
     76 H76       -79.6940   27.3303  -70.5996 H         1 UNK         0.1434 
     77 H77       -75.4618   26.8215  -70.8856 H         1 UNK         0.1329 
     78 H78       -77.2915   30.3367  -72.5125 H         1 UNK         0.1335 
     79 H79       -74.8827   29.5549  -73.1496 H         1 UNK         0.0680 
     80 H80       -74.1257   28.3678  -72.1108 H         1 UNK         0.0680 
     81 H81       -72.1881   29.5725  -71.5816 H         1 UNK         0.1032 
     82 H82       -72.1410   30.5785  -70.1699 H         1 UNK         0.1032 
     83 H83       -72.5160   32.6180  -71.6255 H         1 UNK         0.0461 
     84 H84       -70.2608   32.6953  -73.7515 H         1 UNK         0.3453 
     85 H85       -68.8354   32.6816  -72.7432 H         1 UNK         0.3453 
     86 H86       -73.0709   32.4444  -73.7435 H         1 UNK         0.2984 
     87 H87       -73.7049   31.0828  -75.7868 H         1 UNK         0.0554 
     88 H88       -70.8542   32.1033  -76.4120 H         1 UNK         0.0847 
     89 H89       -72.1663   33.1087  -75.8112 H         1 UNK         0.0847 
     90 H90       -72.2769   32.4017  -77.4049 H         1 UNK         0.0847 
     91 H91       -71.7545   29.0954  -75.9791 H         1 UNK         0.3141 
     92 H92       -72.6580   27.8101  -79.1651 H         1 UNK         0.0743 
     93 H93       -69.9079   28.5094  -77.9964 H         1 UNK         0.0784 
     94 H94       -70.2317   27.2835  -79.2231 H         1 UNK         0.0784 
     95 H95       -70.4985   28.9806  -79.5834 H         1 UNK         0.0784 
     96 H96       -71.2799   26.8188  -76.7998 H         1 UNK         0.3213 
     97 H97       -72.2413   25.1029  -75.6400 H         1 UNK         0.0855 
     98 H98       -74.4849   26.8266  -74.4273 H         1 UNK         0.0814 
     99 H99       -72.7599   27.1218  -74.2495 H         1 UNK         0.0814 
    100 H100      -73.4807   25.6885  -73.5341 H         1 UNK         0.0814 
    101 H101      -75.2208   24.8831  -75.8990 H         1 UNK         0.3105 
    102 H102      -75.7199   22.7115  -77.3184 H         1 UNK         0.0547 
    103 H103      -74.3490   20.6699  -77.2947 H         1 UNK         0.0837 
    104 H104      -74.5521   20.4896  -75.5607 H         1 UNK         0.0837 
    105 H105      -75.9372   20.3114  -76.6377 H         1 UNK         0.0837 
    106 H106      -77.1499   23.1981  -75.7193 H         1 UNK         0.3020 
    107 H107      -77.8352   22.0302  -72.6101 H         1 UNK         0.1245 
    108 H108      -77.0055   24.9707  -72.8191 H         1 UNK         0.0781 
    109 H109      -76.2678   23.8278  -71.7163 H         1 UNK         0.0781 
    110 H110      -76.7566   25.2416  -69.6284 H         1 UNK         0.0836 
    111 H111      -78.3375   25.7302  -69.0748 H         1 UNK         0.0836 
    112 H112      -78.9409   24.2314  -74.1195 H         1 UNK         0.3022 
    113 H113      -80.9144   22.1501  -76.2732 H         1 UNK         0.0747 
    114 H114      -82.6441   23.7155  -75.4051 H         1 UNK         0.0793 
    115 H115      -82.2532   22.4825  -74.2189 H         1 UNK         0.0793 
    116 H116      -81.6232   24.1085  -74.0215 H         1 UNK         0.0793 
    117 H117      -80.2336   24.9928  -75.9175 H         1 UNK         0.3047 
    118 H118      -77.8613   25.0527  -78.5080 H         1 UNK         0.0822 
    119 H119      -79.3558   26.6453  -79.7039 H         1 UNK         0.0807 
    120 H120      -80.7590   25.9945  -78.8583 H         1 UNK         0.0807 
    121 H121      -79.8605   24.9867  -79.9821 H         1 UNK         0.0807 
    122 H122      -79.3467   27.1072  -77.1164 H         1 UNK         0.2946 
    123 H123      -77.2458   27.1663  -74.2384 H         1 UNK         0.1144 
    124 H124      -75.8807   28.4191  -75.9129 H         1 UNK         0.0793 
    125 H125      -76.8475   29.5217  -74.9504 H         1 UNK         0.0793 
    126 H126      -77.3344   29.1276  -76.5990 H         1 UNK         0.0793 
    127 H127      -79.3179   28.9146  -75.0556 H         1 UNK         0.2896 
@<TRIPOS>BOND
     1    1    2 1    
     2    1   67 1    
     3    1   68 1    
     4    1   69 1    
     5    2    3 2    
     6    2    4 am   BACKBONE|DICT|INTERRES
     7    4    5 1    
     8    4   70 1    
     9    5    6 1    
    10    5   65 1    
    11    5   71 1    
    12    6    7 1    
    13    6   72 1    
    14    6   73 1    
    15    7    8 1    
    16    8    9 1    
    17    8   74 1    
    18    8   75 1    
    19    9   10 ar   
    20    9   14 ar   
    21   10   11 ar   
    22   10   76 1    
    23   11   12 ar   
    24   11   48 1    
    25   12   13 ar   
    26   12   77 1    
    27   13   14 ar   
    28   13   15 1    
    29   14   78 1    
    30   15   16 1    
    31   15   79 1    
    32   15   80 1    
    33   16   17 1    
    34   17   18 1    
    35   17   81 1    
    36   17   82 1    
    37   18   19 1    
    38   18   22 1    
    39   18   83 1    
    40   19   20 am   BACKBONE|DICT|INTERRES
    41   19   21 2    
    42   20   84 1    
    43   20   85 1    
    44   22   23 am   BACKBONE|DICT|INTERRES
    45   22   86 1    
    46   23   24 2    
    47   23   25 1    
    48   25   26 1    
    49   25   27 1    
    50   25   87 1    
    51   26   88 1    
    52   26   89 1    
    53   26   90 1    
    54   27   28 am   BACKBONE|DICT|INTERRES
    55   27   91 1    
    56   28   29 2    
    57   28   30 1    
    58   30   31 1    
    59   30   32 1    
    60   30   92 1    
    61   31   93 1    
    62   31   94 1    
    63   31   95 1    
    64   32   33 am   BACKBONE|DICT|INTERRES
    65   32   96 1    
    66   33   34 2    
    67   33   35 1    
    68   35   36 1    
    69   35   37 1    
    70   35   97 1    
    71   36   98 1    
    72   36   99 1    
    73   36  100 1    
    74   37   38 am   BACKBONE|DICT|INTERRES
    75   37  101 1    
    76   38   39 2    
    77   38   40 1    
    78   40   41 1    
    79   40   42 1    
    80   40  102 1    
    81   41  103 1    
    82   41  104 1    
    83   41  105 1    
    84   42   43 am   BACKBONE|DICT|INTERRES
    85   42  106 1    
    86   43   44 2    
    87   43   45 1    
    88   45   46 1    
    89   45   49 1    
    90   45  107 1    
    91   46   47 1    
    92   46  108 1    
    93   46  109 1    
    94   47   48 1    
    95   48  110 1    
    96   48  111 1    
    97   49   50 am   BACKBONE|DICT|INTERRES
    98   49  112 1    
    99   50   51 2    
   100   50   52 1    
   101   52   53 1    
   102   52   54 1    
   103   52  113 1    
   104   53  114 1    
   105   53  115 1    
   106   53  116 1    
   107   54   55 am   BACKBONE|DICT|INTERRES
   108   54  117 1    
   109   55   56 2    
   110   55   57 1    
   111   57   58 1    
   112   57   59 1    
   113   57  118 1    
   114   58  119 1    
   115   58  120 1    
   116   58  121 1    
   117   59   60 am   BACKBONE|DICT|INTERRES
   118   59  122 1    
   119   60   61 2    
   120   60   62 1    
   121   62   63 1    
   122   62   64 1    
   123   62  123 1    
   124   63  124 1    
   125   63  125 1    
   126   63  126 1    
   127   64   65 am   BACKBONE|DICT|INTERRES
   128   64  127 1    
   129   65   66 2    
@<TRIPOS>SUBSTRUCTURE
     1 UNK         1 GROUP             0       ****    0 ROOT    
