@<TRIPOS>MOLECULE
3R135
127   129    1
SMALL
USER_CHARGES


@<TRIPOS>ATOM
      1 CA        -81.7979   21.5775  -73.8969 C.3       0 UNK        -0.1998 
      2 C         -81.2404   22.9486  -73.5487 C.2       0 UNK         0.4909 
      3 O         -80.0295   23.1534  -73.6400 O.2       0 UNK        -0.5240 
      4 N         -82.1156   23.8932  -73.1699 N.am      1 UNK        -0.4739 
      5 CA        -81.7829   25.2719  -72.7769 C.3       1 UNK         0.0864 
      6 C6        -81.0468   25.3131  -71.4120 C.3       11 UNK        -0.0881 
      7 S7        -81.1290   26.9385  -70.5845 S.3       11 UNK        -0.2682 
      8 C8        -79.4582   27.0777  -69.8485 C.3       11 UNK         0.0289 
      9 C9        -78.5466   28.1716  -70.4166 C.ar      11 UNK        -0.0687 
     10 C10       -78.9476   29.0749  -71.4111 C.ar      11 UNK        -0.0823 
     11 C11       -78.1083   30.1218  -71.8114 C.ar      11 UNK        -0.0830 
     12 C12       -76.8451   30.2539  -71.2241 C.ar      11 UNK        -0.1021 
     13 C13       -76.4184   29.3459  -70.2497 C.ar      11 UNK        -0.0753 
     14 C14       -77.2708   28.3085  -69.8605 C.ar      11 UNK        -0.0933 
     15 C15       -75.0733   29.5165  -69.5536 C.3       11 UNK         0.0166 
     16 S16       -73.7073   28.7153  -70.4562 S.3       11 UNK        -0.2615 
     17 C17       -73.0727   30.0880  -71.4813 C.3       11 UNK        -0.0865 
     18 CA        -73.5111   29.9689  -72.9663 C.3       10 UNK         0.0862 
     19 C         -73.2910   31.2778  -73.7859 C.2       10 UNK         0.5551 
     20 N         -73.4426   31.2384  -75.1025 N.am      10 UNK        -0.7319 
     21 O         -72.9947   32.3362  -73.2356 O.2       10 UNK        -0.5018 
     22 N         -72.9940   28.7489  -73.6185 N.am      10 UNK        -0.4509 
     23 C         -71.7189   28.5353  -73.9764 C.2       10 UNK         0.4899 
     24 O         -70.8131   29.3449  -73.7705 O.2       10 UNK        -0.4839 
     25 CA        -71.3847   27.1979  -74.6672 C.3       9 UNK         0.0222 
     26 CB        -69.8867   26.8379  -74.5380 C.3       9 UNK        -0.1966 
     27 N         -72.2119   26.1095  -74.1414 N.am      9 UNK        -0.4218 
     28 C         -72.5336   24.9428  -74.7184 C.2       9 UNK         0.5020 
     29 O         -73.2392   24.1171  -74.1420 O.2       9 UNK        -0.5274 
     30 CA        -72.0260   24.5903  -76.1259 C.3       8 UNK         0.0270 
     31 CB        -71.3821   23.1873  -76.1447 C.3       8 UNK        -0.1976 
     32 N         -73.1501   24.6546  -77.0584 N.am      8 UNK        -0.4313 
     33 C         -73.0231   24.7185  -78.3894 C.2       8 UNK         0.5041 
     34 O         -71.9407   24.7126  -78.9783 O.2       8 UNK        -0.5577 
     35 CA        -74.3144   24.8323  -79.2079 C.3       7 UNK         0.0284 
     36 CB        -75.0895   23.5024  -79.2399 C.3       7 UNK        -0.1958 
     37 N         -75.1614   25.9246  -78.7180 N.am      7 UNK        -0.4454 
     38 C         -75.0101   27.1956  -79.1174 C.2       7 UNK         0.5089 
     39 O         -74.1205   27.5663  -79.8849 O.2       7 UNK        -0.5125 
     40 CA        -76.0355   28.2327  -78.6404 C.3       6 UNK         0.0408 
     41 CB        -77.2240   28.2782  -79.6145 C.3       6 UNK        -0.1791 
     42 N         -76.5378   28.0128  -77.2841 N.am      6 UNK        -0.4762 
     43 C         -75.9653   28.5281  -76.1887 C.2       6 UNK         0.5007 
     44 O         -74.8399   29.0274  -76.1839 O.2       6 UNK        -0.5032 
     45 CA        -76.7982   28.5149  -74.8909 C.3       5 UNK         0.0783 
     46 C46       -78.0755   29.3880  -74.9801 C.3       11 UNK        -0.0857 
     47 S47       -77.7263   31.0875  -74.4199 S.3       11 UNK        -0.2512 
     48 C48       -78.6039   31.1514  -72.8232 C.3       11 UNK         0.0225 
     49 N         -77.0783   27.1570  -74.4498 N.am      5 UNK        -0.4615 
     50 C         -76.1797   26.3789  -73.8362 C.2       4 UNK         0.5053 
     51 O         -75.0564   26.7612  -73.5126 O.2       4 UNK        -0.5105 
     52 CA        -76.6021   24.9290  -73.5472 C.3       4 UNK         0.0263 
     53 CB        -77.2334   24.8444  -72.1530 C.3       4 UNK        -0.1981 
     54 N         -77.5250   24.3955  -74.5556 N.am      4 UNK        -0.4224 
     55 C         -77.2131   24.2654  -75.8544 C.2       3 UNK         0.4895 
     56 O         -76.1035   24.5266  -76.3217 O.2       3 UNK        -0.5091 
     57 CA        -78.3432   23.8422  -76.8045 C.3       3 UNK         0.0250 
     58 CB        -78.5840   22.3256  -76.7437 C.3       3 UNK        -0.1996 
     59 N         -79.5872   24.5674  -76.5323 N.am      3 UNK        -0.4254 
     60 C         -79.7645   25.8729  -76.7851 C.2       2 UNK         0.5004 
     61 O         -78.9130   26.5875  -77.3089 O.2       2 UNK        -0.5226 
     62 CA        -81.0985   26.5060  -76.3586 C.3       2 UNK         0.0269 
     63 CB        -82.1352   26.3884  -77.4867 C.3       2 UNK        -0.1926 
     64 N         -81.6461   25.9340  -75.1270 N.am      2 UNK        -0.4687 
     65 C         -81.0628   26.0235  -73.9222 C.2       1 UNK         0.5165 
     66 O         -79.9961   26.6098  -73.7319 O.2       1 UNK        -0.5079 
     67 H67       -81.5531   21.3242  -74.9280 H         1 UNK         0.0900 
     68 H68       -82.8810   21.5358  -73.7838 H         1 UNK         0.0900 
     69 H69       -81.3592   20.8209  -73.2471 H         1 UNK         0.0900 
     70 H70       -83.0987   23.6600  -73.1297 H         1 UNK         0.2959 
     71 H71       -82.7393   25.7814  -72.6466 H         1 UNK         0.1079 
     72 H72       -81.5082   24.5985  -70.7288 H         1 UNK         0.0837 
     73 H73       -80.0200   24.9750  -71.5251 H         1 UNK         0.0837 
     74 H74       -79.5966   27.2827  -68.7860 H         1 UNK         0.0685 
     75 H75       -78.9430   26.1182  -69.8948 H         1 UNK         0.0685 
     76 H76       -79.9273   28.9914  -71.8585 H         1 UNK         0.1434 
     77 H77       -76.2036   31.0753  -71.5122 H         1 UNK         0.1329 
     78 H78       -76.9514   27.6215  -69.0885 H         1 UNK         0.1335 
     79 H79       -74.8641   30.5743  -69.3910 H         1 UNK         0.0680 
     80 H80       -75.1208   29.0754  -68.5567 H         1 UNK         0.0680 
     81 H81       -71.9845   30.1058  -71.4071 H         1 UNK         0.1032 
     82 H82       -73.4087   31.0331  -71.0529 H         1 UNK         0.1032 
     83 H83       -74.5916   29.8555  -72.9482 H         1 UNK         0.0461 
     84 H84       -73.7683   30.3858  -75.5523 H         1 UNK         0.3453 
     85 H85       -73.3044   32.0755  -75.6447 H         1 UNK         0.3453 
     86 H86       -73.6913   28.0309  -73.8011 H         1 UNK         0.2984 
     87 H87       -71.6290   27.3510  -75.7196 H         1 UNK         0.0554 
     88 H88       -69.6376   25.8883  -75.0090 H         1 UNK         0.0847 
     89 H89       -69.5855   26.7710  -73.4919 H         1 UNK         0.0847 
     90 H90       -69.2601   27.5974  -75.0075 H         1 UNK         0.0847 
     91 H91       -72.6297   26.2999  -73.2398 H         1 UNK         0.3141 
     92 H92       -71.2708   25.3004  -76.4567 H         1 UNK         0.0743 
     93 H93       -70.9360   22.9622  -77.1133 H         1 UNK         0.0784 
     94 H94       -70.5875   23.1146  -75.4010 H         1 UNK         0.0784 
     95 H95       -72.1101   22.4057  -75.9238 H         1 UNK         0.0784 
     96 H96       -74.0808   24.6592  -76.6454 H         1 UNK         0.3213 
     97 H97       -74.0298   25.0491  -80.2403 H         1 UNK         0.0855 
     98 H98       -74.5089   22.7366  -79.7556 H         1 UNK         0.0814 
     99 H99       -76.0344   23.6046  -79.7734 H         1 UNK         0.0814 
    100 H100      -75.3044   23.1160  -78.2449 H         1 UNK         0.0814 
    101 H101      -75.8525   25.6964  -78.0121 H         1 UNK         0.3105 
    102 H102      -75.5504   29.2109  -78.6786 H         1 UNK         0.0547 
    103 H103      -76.8900   28.5040  -80.6282 H         1 UNK         0.0837 
    104 H104      -77.7536   27.3255  -79.6518 H         1 UNK         0.0837 
    105 H105      -77.9412   29.0486  -79.3310 H         1 UNK         0.0837 
    106 H106      -77.4428   27.5462  -77.2087 H         1 UNK         0.3020 
    107 H107      -76.1686   28.9480  -74.1156 H         1 UNK         0.1245 
    108 H108      -78.8689   28.9760  -74.3554 H         1 UNK         0.0781 
    109 H109      -78.4929   29.4181  -75.9883 H         1 UNK         0.0781 
    110 H110      -79.6731   31.0317  -73.0056 H         1 UNK         0.0836 
    111 H111      -78.4829   32.1494  -72.3997 H         1 UNK         0.0836 
    112 H112      -78.0111   26.7965  -74.6095 H         1 UNK         0.3022 
    113 H113      -75.7117   24.3006  -73.5573 H         1 UNK         0.0747 
    114 H114      -76.4872   25.0331  -71.3802 H         1 UNK         0.0793 
    115 H115      -78.0072   25.6014  -72.0392 H         1 UNK         0.0793 
    116 H116      -77.6714   23.8650  -71.9599 H         1 UNK         0.0793 
    117 H117      -78.4555   24.1299  -74.2413 H         1 UNK         0.3047 
    118 H118      -78.0279   24.0886  -77.8210 H         1 UNK         0.0822 
    119 H119      -79.3492   22.0166  -77.4558 H         1 UNK         0.0807 
    120 H120      -78.8966   21.9994  -75.7518 H         1 UNK         0.0807 
    121 H121      -77.6726   21.7797  -76.9916 H         1 UNK         0.0807 
    122 H122      -80.3186   24.0635  -76.0527 H         1 UNK         0.2946 
    123 H123      -80.9074   27.5664  -76.1772 H         1 UNK         0.1144 
    124 H124      -83.0566   26.9142  -77.2356 H         1 UNK         0.0793 
    125 H125      -82.3875   25.3487  -77.6990 H         1 UNK         0.0793 
    126 H126      -81.7561   26.8272  -78.4110 H         1 UNK         0.0793 
    127 H127      -82.5097   25.4162  -75.2068 H         1 UNK         0.2896 
@<TRIPOS>BOND
     1    1    2 1    
     2    1   67 1    
     3    1   68 1    
     4    1   69 1    
     5    2    3 2    
     6    2    4 am   BACKBONE|DICT|INTERRES
     7    4    5 1    
     8    4   70 1    
     9    5    6 1    
    10    5   65 1    
    11    5   71 1    
    12    6    7 1    
    13    6   72 1    
    14    6   73 1    
    15    7    8 1    
    16    8    9 1    
    17    8   74 1    
    18    8   75 1    
    19    9   10 ar   
    20    9   14 ar   
    21   10   11 ar   
    22   10   76 1    
    23   11   12 ar   
    24   11   48 1    
    25   12   13 ar   
    26   12   77 1    
    27   13   14 ar   
    28   13   15 1    
    29   14   78 1    
    30   15   16 1    
    31   15   79 1    
    32   15   80 1    
    33   16   17 1    
    34   17   18 1    
    35   17   81 1    
    36   17   82 1    
    37   18   19 1    
    38   18   22 1    
    39   18   83 1    
    40   19   20 am   BACKBONE|DICT|INTERRES
    41   19   21 2    
    42   20   84 1    
    43   20   85 1    
    44   22   23 am   BACKBONE|DICT|INTERRES
    45   22   86 1    
    46   23   24 2    
    47   23   25 1    
    48   25   26 1    
    49   25   27 1    
    50   25   87 1    
    51   26   88 1    
    52   26   89 1    
    53   26   90 1    
    54   27   28 am   BACKBONE|DICT|INTERRES
    55   27   91 1    
    56   28   29 2    
    57   28   30 1    
    58   30   31 1    
    59   30   32 1    
    60   30   92 1    
    61   31   93 1    
    62   31   94 1    
    63   31   95 1    
    64   32   33 am   BACKBONE|DICT|INTERRES
    65   32   96 1    
    66   33   34 2    
    67   33   35 1    
    68   35   36 1    
    69   35   37 1    
    70   35   97 1    
    71   36   98 1    
    72   36   99 1    
    73   36  100 1    
    74   37   38 am   BACKBONE|DICT|INTERRES
    75   37  101 1    
    76   38   39 2    
    77   38   40 1    
    78   40   41 1    
    79   40   42 1    
    80   40  102 1    
    81   41  103 1    
    82   41  104 1    
    83   41  105 1    
    84   42   43 am   BACKBONE|DICT|INTERRES
    85   42  106 1    
    86   43   44 2    
    87   43   45 1    
    88   45   46 1    
    89   45   49 1    
    90   45  107 1    
    91   46   47 1    
    92   46  108 1    
    93   46  109 1    
    94   47   48 1    
    95   48  110 1    
    96   48  111 1    
    97   49   50 am   BACKBONE|DICT|INTERRES
    98   49  112 1    
    99   50   51 2    
   100   50   52 1    
   101   52   53 1    
   102   52   54 1    
   103   52  113 1    
   104   53  114 1    
   105   53  115 1    
   106   53  116 1    
   107   54   55 am   BACKBONE|DICT|INTERRES
   108   54  117 1    
   109   55   56 2    
   110   55   57 1    
   111   57   58 1    
   112   57   59 1    
   113   57  118 1    
   114   58  119 1    
   115   58  120 1    
   116   58  121 1    
   117   59   60 am   BACKBONE|DICT|INTERRES
   118   59  122 1    
   119   60   61 2    
   120   60   62 1    
   121   62   63 1    
   122   62   64 1    
   123   62  123 1    
   124   63  124 1    
   125   63  125 1    
   126   63  126 1    
   127   64   65 am   BACKBONE|DICT|INTERRES
   128   64  127 1    
   129   65   66 2    
@<TRIPOS>SUBSTRUCTURE
     1 UNK         1 GROUP             0       ****    0 ROOT    
