@<TRIPOS>MOLECULE
3R135
127   129    1
SMALL
USER_CHARGES


@<TRIPOS>ATOM
      1 CA        -84.0491   28.9875  -72.2745 C.3       0 UNK        -0.1998 
      2 C         -82.8481   28.3728  -72.9762 C.2       0 UNK         0.4909 
      3 O         -82.1460   27.5587  -72.3763 O.2       0 UNK        -0.5240 
      4 N         -82.6106   28.7623  -74.2374 N.am      1 UNK        -0.4739 
      5 CA        -81.5305   28.3301  -75.1411 C.3       1 UNK         0.0864 
      6 C6        -80.0966   28.6343  -74.6248 C.3       11 UNK        -0.0881 
      7 S7        -79.7622   30.4249  -74.4655 S.3       11 UNK        -0.2682 
      8 C8        -79.9290   30.7408  -72.6759 C.3       11 UNK         0.0289 
      9 C9        -78.8069   30.1091  -71.8646 C.ar      11 UNK        -0.0687 
     10 C10       -78.9980   28.8656  -71.2584 C.ar      11 UNK        -0.0823 
     11 C11       -77.9627   28.2532  -70.5499 C.ar      11 UNK        -0.0830 
     12 C12       -76.7465   28.9225  -70.3908 C.ar      11 UNK        -0.1021 
     13 C13       -76.5383   30.1652  -70.9976 C.ar      11 UNK        -0.0753 
     14 C14       -77.5747   30.7568  -71.7285 C.ar      11 UNK        -0.0933 
     15 C15       -75.1849   30.8546  -70.8934 C.3       11 UNK         0.0166 
     16 S16       -74.1748   30.5865  -72.3881 S.3       11 UNK        -0.2615 
     17 C17       -73.6681   28.8394  -72.2061 C.3       11 UNK        -0.0865 
     18 CA        -72.1407   28.6826  -71.9481 C.3       10 UNK         0.0862 
     19 C         -71.7552   27.2489  -71.4646 C.2       10 UNK         0.5551 
     20 N         -70.5793   26.7322  -71.8005 N.am      10 UNK        -0.7319 
     21 O         -72.5124   26.6086  -70.7395 O.2       10 UNK        -0.5018 
     22 N         -71.3159   29.2103  -73.0540 N.am      10 UNK        -0.4509 
     23 C         -71.2742   28.7261  -74.3021 C.2       10 UNK         0.4899 
     24 O         -71.9029   27.7374  -74.6854 O.2       10 UNK        -0.4839 
     25 CA        -70.3268   29.4439  -75.2751 C.3       9 UNK         0.0222 
     26 CB        -68.9261   28.8122  -75.2254 C.3       9 UNK        -0.1966 
     27 N         -70.8464   29.3369  -76.6359 N.am      9 UNK        -0.4218 
     28 C         -71.7436   30.1614  -77.1849 C.2       9 UNK         0.5020 
     29 O         -72.1164   31.2145  -76.6660 O.2       9 UNK        -0.5274 
     30 CA        -72.3521   29.7306  -78.5321 C.3       8 UNK         0.0270 
     31 CB        -71.3541   29.9166  -79.6930 C.3       8 UNK        -0.1976 
     32 N         -72.9310   28.3778  -78.5115 N.am      8 UNK        -0.4313 
     33 C         -72.3148   27.1932  -78.3729 C.2       8 UNK         0.5041 
     34 O         -71.0912   27.0674  -78.2869 O.2       8 UNK        -0.5577 
     35 CA        -73.2192   25.9505  -78.2837 C.3       7 UNK         0.0284 
     36 CB        -72.5701   24.8154  -77.4696 C.3       7 UNK        -0.1958 
     37 N         -74.5038   26.2919  -77.6711 N.am      7 UNK        -0.4454 
     38 C         -75.7158   26.0986  -78.1994 C.2       7 UNK         0.5089 
     39 O         -75.9050   25.5860  -79.3037 O.2       7 UNK        -0.5125 
     40 CA        -76.9116   26.5726  -77.3440 C.3       6 UNK         0.0408 
     41 CB        -78.2636   26.3474  -78.0437 C.3       6 UNK        -0.1791 
     42 N         -76.9555   25.9455  -76.0186 N.am      6 UNK        -0.4762 
     43 C         -76.1344   26.2105  -74.9924 C.2       6 UNK         0.5007 
     44 O         -75.2256   27.0375  -75.0611 O.2       6 UNK        -0.5032 
     45 CA        -76.3394   25.4348  -73.6784 C.3       5 UNK         0.0783 
     46 C46       -77.2441   26.2370  -72.7161 C.3       11 UNK        -0.0857 
     47 S47       -77.1057   25.6382  -70.9935 S.3       11 UNK        -0.2512 
     48 C48       -78.1302   26.8256  -70.0507 C.3       11 UNK         0.0225 
     49 N         -76.8771   24.0961  -73.9320 N.am      5 UNK        -0.4615 
     50 C         -76.1692   22.9617  -73.8706 C.2       4 UNK         0.5053 
     51 O         -74.9681   22.9170  -73.6036 O.2       4 UNK        -0.5105 
     52 CA        -76.9218   21.6430  -74.1343 C.3       4 UNK         0.0263 
     53 CB        -77.3657   21.0096  -72.8056 C.3       4 UNK        -0.1981 
     54 N         -78.0908   21.7999  -75.0029 N.am      4 UNK        -0.4224 
     55 C         -78.0322   22.0565  -76.3168 C.2       3 UNK         0.4895 
     56 O         -76.9819   22.1126  -76.9563 O.2       3 UNK        -0.5091 
     57 CA        -79.3667   22.3118  -77.0448 C.3       3 UNK         0.0250 
     58 CB        -79.8656   21.0175  -77.7078 C.3       3 UNK        -0.1996 
     59 N         -80.4476   22.8791  -76.2233 N.am      3 UNK        -0.4254 
     60 C         -80.3748   24.0047  -75.4990 C.2       2 UNK         0.5004 
     61 O         -79.3317   24.6356  -75.3183 O.2       2 UNK        -0.5226 
     62 CA        -81.6713   24.4782  -74.8214 C.3       2 UNK         0.0269 
     63 CB        -81.8369   23.7895  -73.4573 C.3       2 UNK        -0.1926 
     64 N         -81.6800   25.9287  -74.6168 N.am      2 UNK        -0.4687 
     65 C         -81.6688   26.8568  -75.5819 C.2       1 UNK         0.5165 
     66 O         -81.7737   26.5922  -76.7806 O.2       1 UNK        -0.5079 
     67 H67       -84.7506   28.2072  -71.9807 H         1 UNK         0.0900 
     68 H68       -84.5768   29.6968  -72.9118 H         1 UNK         0.0900 
     69 H69       -83.7278   29.5130  -71.3757 H         1 UNK         0.0900 
     70 H70       -83.2514   29.4231  -74.6551 H         1 UNK         0.2959 
     71 H71       -81.6692   28.9177  -76.0506 H         1 UNK         0.1079 
     72 H72       -79.3553   28.2418  -75.3241 H         1 UNK         0.0837 
     73 H73       -79.9019   28.1209  -73.6857 H         1 UNK         0.0837 
     74 H74       -79.9270   31.8196  -72.5133 H         1 UNK         0.0685 
     75 H75       -80.8996   30.3889  -72.3275 H         1 UNK         0.0685 
     76 H76       -79.9410   28.3514  -71.3765 H         1 UNK         0.1434 
     77 H77       -75.9461   28.4452  -69.8422 H         1 UNK         0.1329 
     78 H78       -77.4148   31.7121  -72.2096 H         1 UNK         0.1335 
     79 H79       -74.6383   30.5094  -70.0143 H         1 UNK         0.0680 
     80 H80       -75.3341   31.9268  -70.7578 H         1 UNK         0.0680 
     81 H81       -73.9645   28.2962  -73.1037 H         1 UNK         0.1032 
     82 H82       -74.2391   28.3886  -71.3961 H         1 UNK         0.1032 
     83 H83       -71.9009   29.3152  -71.0926 H         1 UNK         0.0461 
     84 H84       -70.3323   25.8118  -71.4730 H         1 UNK         0.3453 
     85 H85       -69.9453   27.2485  -72.3879 H         1 UNK         0.3453 
     86 H86       -70.7459   30.0118  -72.8246 H         1 UNK         0.2984 
     87 H87       -70.2488   30.4964  -74.9941 H         1 UNK         0.0554 
     88 H88       -68.2437   29.3076  -75.9164 H         1 UNK         0.0847 
     89 H89       -68.9520   27.7524  -75.4836 H         1 UNK         0.0847 
     90 H90       -68.4924   28.8957  -74.2282 H         1 UNK         0.0847 
     91 H91       -70.6872   28.4550  -77.1209 H         1 UNK         0.3141 
     92 H92       -73.1914   30.4020  -78.7216 H         1 UNK         0.0743 
     93 H93       -71.0139   30.9515  -79.7484 H         1 UNK         0.0784 
     94 H94       -70.4674   29.2924  -79.5798 H         1 UNK         0.0784 
     95 H95       -71.8131   29.6748  -80.6516 H         1 UNK         0.0784 
     96 H96       -73.9406   28.3511  -78.5444 H         1 UNK         0.3213 
     97 H97       -73.3674   25.5992  -79.3068 H         1 UNK         0.0855 
     98 H98       -71.6372   24.4849  -77.9280 H         1 UNK         0.0814 
     99 H99       -73.2257   23.9464  -77.4088 H         1 UNK         0.0814 
    100 H100      -72.3410   25.1347  -76.4516 H         1 UNK         0.0814 
    101 H101      -74.4673   26.7006  -76.7378 H         1 UNK         0.3105 
    102 H102      -76.7941   27.6491  -77.2032 H         1 UNK         0.0547 
    103 H103      -78.2943   26.8487  -79.0118 H         1 UNK         0.0837 
    104 H104      -78.4546   25.2887  -78.2172 H         1 UNK         0.0837 
    105 H105      -79.0879   26.7421  -77.4508 H         1 UNK         0.0837 
    106 H106      -77.7227   25.2961  -75.8588 H         1 UNK         0.3020 
    107 H107      -75.3497   25.3578  -73.2210 H         1 UNK         0.1245 
    108 H108      -76.9502   27.2878  -72.7355 H         1 UNK         0.0781 
    109 H109      -78.2889   26.2011  -73.0315 H         1 UNK         0.0781 
    110 H110      -77.8613   26.7725  -68.9949 H         1 UNK         0.0836 
    111 H111      -79.1741   26.5146  -70.1171 H         1 UNK         0.0836 
    112 H112      -77.8505   24.0592  -74.2169 H         1 UNK         0.3022 
    113 H113      -76.2242   20.9588  -74.6225 H         1 UNK         0.0747 
    114 H114      -77.8359   20.0390  -72.9648 H         1 UNK         0.0793 
    115 H115      -76.5117   20.8497  -72.1458 H         1 UNK         0.0793 
    116 H116      -78.0741   21.6448  -72.2719 H         1 UNK         0.0793 
    117 H117      -78.9983   21.7649  -74.5625 H         1 UNK         0.3047 
    118 H118      -79.1583   23.0343  -77.8357 H         1 UNK         0.0822 
    119 H119      -80.7368   21.2020  -78.3367 H         1 UNK         0.0807 
    120 H120      -80.1374   20.2637  -76.9677 H         1 UNK         0.0807 
    121 H121      -79.0955   20.5831  -78.3473 H         1 UNK         0.0807 
    122 H122      -81.3395   22.4088  -76.2859 H         1 UNK         0.2946 
    123 H123      -82.5173   24.2220  -75.4629 H         1 UNK         0.1144 
    124 H124      -82.7620   24.0963  -72.9686 H         1 UNK         0.0793 
    125 H125      -81.0105   24.0256  -72.7849 H         1 UNK         0.0793 
    126 H126      -81.8731   22.7045  -73.5636 H         1 UNK         0.0793 
    127 H127      -81.6429   26.2645  -73.6579 H         1 UNK         0.2896 
@<TRIPOS>BOND
     1    1    2 1    
     2    1   67 1    
     3    1   68 1    
     4    1   69 1    
     5    2    3 2    
     6    2    4 am   BACKBONE|DICT|INTERRES
     7    4    5 1    
     8    4   70 1    
     9    5    6 1    
    10    5   65 1    
    11    5   71 1    
    12    6    7 1    
    13    6   72 1    
    14    6   73 1    
    15    7    8 1    
    16    8    9 1    
    17    8   74 1    
    18    8   75 1    
    19    9   10 ar   
    20    9   14 ar   
    21   10   11 ar   
    22   10   76 1    
    23   11   12 ar   
    24   11   48 1    
    25   12   13 ar   
    26   12   77 1    
    27   13   14 ar   
    28   13   15 1    
    29   14   78 1    
    30   15   16 1    
    31   15   79 1    
    32   15   80 1    
    33   16   17 1    
    34   17   18 1    
    35   17   81 1    
    36   17   82 1    
    37   18   19 1    
    38   18   22 1    
    39   18   83 1    
    40   19   20 am   BACKBONE|DICT|INTERRES
    41   19   21 2    
    42   20   84 1    
    43   20   85 1    
    44   22   23 am   BACKBONE|DICT|INTERRES
    45   22   86 1    
    46   23   24 2    
    47   23   25 1    
    48   25   26 1    
    49   25   27 1    
    50   25   87 1    
    51   26   88 1    
    52   26   89 1    
    53   26   90 1    
    54   27   28 am   BACKBONE|DICT|INTERRES
    55   27   91 1    
    56   28   29 2    
    57   28   30 1    
    58   30   31 1    
    59   30   32 1    
    60   30   92 1    
    61   31   93 1    
    62   31   94 1    
    63   31   95 1    
    64   32   33 am   BACKBONE|DICT|INTERRES
    65   32   96 1    
    66   33   34 2    
    67   33   35 1    
    68   35   36 1    
    69   35   37 1    
    70   35   97 1    
    71   36   98 1    
    72   36   99 1    
    73   36  100 1    
    74   37   38 am   BACKBONE|DICT|INTERRES
    75   37  101 1    
    76   38   39 2    
    77   38   40 1    
    78   40   41 1    
    79   40   42 1    
    80   40  102 1    
    81   41  103 1    
    82   41  104 1    
    83   41  105 1    
    84   42   43 am   BACKBONE|DICT|INTERRES
    85   42  106 1    
    86   43   44 2    
    87   43   45 1    
    88   45   46 1    
    89   45   49 1    
    90   45  107 1    
    91   46   47 1    
    92   46  108 1    
    93   46  109 1    
    94   47   48 1    
    95   48  110 1    
    96   48  111 1    
    97   49   50 am   BACKBONE|DICT|INTERRES
    98   49  112 1    
    99   50   51 2    
   100   50   52 1    
   101   52   53 1    
   102   52   54 1    
   103   52  113 1    
   104   53  114 1    
   105   53  115 1    
   106   53  116 1    
   107   54   55 am   BACKBONE|DICT|INTERRES
   108   54  117 1    
   109   55   56 2    
   110   55   57 1    
   111   57   58 1    
   112   57   59 1    
   113   57  118 1    
   114   58  119 1    
   115   58  120 1    
   116   58  121 1    
   117   59   60 am   BACKBONE|DICT|INTERRES
   118   59  122 1    
   119   60   61 2    
   120   60   62 1    
   121   62   63 1    
   122   62   64 1    
   123   62  123 1    
   124   63  124 1    
   125   63  125 1    
   126   63  126 1    
   127   64   65 am   BACKBONE|DICT|INTERRES
   128   64  127 1    
   129   65   66 2    
@<TRIPOS>SUBSTRUCTURE
     1 UNK         1 GROUP             0       ****    0 ROOT    
