@<TRIPOS>MOLECULE
3R135
127   129    1
SMALL
USER_CHARGES


@<TRIPOS>ATOM
      1 CA        -81.5741   25.3125  -70.2089 C.3       0 UNK        -0.1998 
      2 C         -82.5659   25.8603  -71.2232 C.2       0 UNK         0.4909 
      3 O         -83.6371   25.2815  -71.4056 O.2       0 UNK        -0.5240 
      4 N         -82.2215   26.9771  -71.8781 N.am      1 UNK        -0.4739 
      5 CA        -83.0359   27.6282  -72.9128 C.3       1 UNK         0.0864 
      6 C6        -82.5974   29.0949  -73.1652 C.3       11 UNK        -0.0881 
      7 S7        -80.8280   29.2721  -73.5872 S.3       11 UNK        -0.2682 
      8 C8        -80.1395   29.9035  -72.0252 C.3       11 UNK         0.0289 
      9 C9        -78.6877   29.4806  -71.8878 C.ar      11 UNK        -0.0687 
     10 C10       -78.3703   28.2699  -71.2663 C.ar      11 UNK        -0.0823 
     11 C11       -77.0448   27.8281  -71.1982 C.ar      11 UNK        -0.0830 
     12 C12       -76.0324   28.6377  -71.7245 C.ar      11 UNK        -0.1021 
     13 C13       -76.3319   29.8681  -72.3183 C.ar      11 UNK        -0.0753 
     14 C14       -77.6645   30.2824  -72.4003 C.ar      11 UNK        -0.0933 
     15 C15       -75.2172   30.7587  -72.8499 C.3       11 UNK         0.0166 
     16 S16       -75.2968   30.9401  -74.6579 S.3       11 UNK        -0.2615 
     17 C17       -73.7787   31.9006  -74.9870 C.3       11 UNK        -0.0865 
     18 CA        -72.7188   31.0849  -75.7831 C.3       10 UNK         0.0862 
     19 C         -71.5340   31.9625  -76.2948 C.2       10 UNK         0.5551 
     20 N         -70.3094   31.4527  -76.3717 N.am      10 UNK        -0.7319 
     21 O         -71.7307   33.1183  -76.6630 O.2       10 UNK        -0.5018 
     22 N         -72.3132   29.8426  -75.1057 N.am      10 UNK        -0.4509 
     23 C         -71.6392   29.7453  -73.9522 C.2       10 UNK         0.4899 
     24 O         -71.3299   30.7062  -73.2475 O.2       10 UNK        -0.4839 
     25 CA        -71.2110   28.3329  -73.5167 C.3       9 UNK         0.0222 
     26 CB        -72.3112   27.6891  -72.6608 C.3       9 UNK        -0.1966 
     27 N         -70.8770   27.4360  -74.6284 N.am      9 UNK        -0.4218 
     28 C         -69.9422   27.6425  -75.5660 C.2       9 UNK         0.5020 
     29 O         -69.2368   28.6515  -75.6149 O.2       9 UNK        -0.5274 
     30 CA        -69.7727   26.5626  -76.6538 C.3       8 UNK         0.0270 
     31 CB        -68.8400   25.4315  -76.1773 C.3       8 UNK        -0.1976 
     32 N         -71.0377   26.0401  -77.1955 N.am      8 UNK        -0.4313 
     33 C         -71.9811   25.3178  -76.5752 C.2       8 UNK         0.5041 
     34 O         -71.8894   24.9096  -75.4152 O.2       8 UNK        -0.5577 
     35 CA        -73.2760   25.0659  -77.3678 C.3       7 UNK         0.0284 
     36 CB        -73.4977   23.5583  -77.5762 C.3       7 UNK        -0.1958 
     37 N         -74.4519   25.6433  -76.7074 N.am      7 UNK        -0.4454 
     38 C         -74.5789   26.9090  -76.2811 C.2       7 UNK         0.5089 
     39 O         -73.7253   27.7785  -76.4619 O.2       7 UNK        -0.5125 
     40 CA        -75.8718   27.2879  -75.5353 C.3       6 UNK         0.0408 
     41 CB        -76.8326   28.0401  -76.4674 C.3       6 UNK        -0.1791 
     42 N         -76.5830   26.1645  -74.9208 N.am      6 UNK        -0.4762 
     43 C         -76.1322   25.4463  -73.8806 C.2       6 UNK         0.5007 
     44 O         -75.0181   25.5829  -73.3776 O.2       6 UNK        -0.5032 
     45 CA        -77.1020   24.3935  -73.3155 C.3       5 UNK         0.0783 
     46 C46       -78.2367   25.0590  -72.4910 C.3       11 UNK        -0.0857 
     47 S47       -77.8940   25.1509  -70.7005 S.3       11 UNK        -0.2512 
     48 C48       -76.6685   26.5016  -70.5375 C.3       11 UNK         0.0225 
     49 N         -77.6343   23.5843  -74.4120 N.am      5 UNK        -0.4615 
     50 C         -76.9941   22.5487  -74.9716 C.2       4 UNK         0.5053 
     51 O         -75.9343   22.0899  -74.5464 O.2       4 UNK        -0.5105 
     52 CA        -77.6339   21.9166  -76.2228 C.3       4 UNK         0.0263 
     53 CB        -78.4752   20.6905  -75.8331 C.3       4 UNK        -0.1981 
     54 N         -78.4669   22.8480  -76.9887 N.am      4 UNK        -0.4224 
     55 C         -78.0103   23.9363  -77.6251 C.2       3 UNK         0.4895 
     56 O         -76.8215   24.2416  -77.6897 O.2       3 UNK        -0.5091 
     57 CA        -79.0589   24.8719  -78.2507 C.3       3 UNK         0.0250 
     58 CB        -79.3108   24.4892  -79.7176 C.3       3 UNK        -0.1996 
     59 N         -80.3357   24.9097  -77.5278 N.am      3 UNK        -0.4254 
     60 C         -80.4905   25.2641  -76.2442 C.2       2 UNK         0.5004 
     61 O         -79.5581   25.5673  -75.4924 O.2       2 UNK        -0.5226 
     62 CA        -81.9205   25.1987  -75.7008 C.3       2 UNK         0.0269 
     63 CB        -82.2822   23.7567  -75.3029 C.3       2 UNK        -0.1926 
     64 N         -82.0374   26.0595  -74.5285 N.am      2 UNK        -0.4687 
     65 C         -83.1035   26.8097  -74.2215 C.2       1 UNK         0.5165 
     66 O         -84.1232   26.8602  -74.9118 O.2       1 UNK        -0.5079 
     67 H67       -81.0993   24.4116  -70.5965 H         1 UNK         0.0900 
     68 H68       -82.0861   25.0560  -69.2819 H         1 UNK         0.0900 
     69 H69       -80.7948   26.0352  -69.9707 H         1 UNK         0.0900 
     70 H70       -81.3258   27.4071  -71.7044 H         1 UNK         0.2959 
     71 H71       -84.0607   27.6645  -72.5354 H         1 UNK         0.1079 
     72 H72       -82.8209   29.6994  -72.2849 H         1 UNK         0.0837 
     73 H73       -83.1884   29.5369  -73.9700 H         1 UNK         0.0837 
     74 H74       -80.2280   30.9908  -72.0028 H         1 UNK         0.0685 
     75 H75       -80.7130   29.5291  -71.1761 H         1 UNK         0.0685 
     76 H76       -79.1604   27.6605  -70.8540 H         1 UNK         0.1434 
     77 H77       -75.0047   28.3099  -71.6635 H         1 UNK         0.1329 
     78 H78       -77.9044   31.2235  -72.8762 H         1 UNK         0.1335 
     79 H79       -75.2904   31.7431  -72.3856 H         1 UNK         0.0680 
     80 H80       -74.2420   30.3563  -72.5733 H         1 UNK         0.0680 
     81 H81       -73.3564   32.2767  -74.0541 H         1 UNK         0.1032 
     82 H82       -74.0806   32.7841  -75.5520 H         1 UNK         0.1032 
     83 H83       -73.2070   30.7475  -76.6981 H         1 UNK         0.0461 
     84 H84       -70.1186   30.5048  -76.0690 H         1 UNK         0.3453 
     85 H85       -69.5580   32.0289  -76.7156 H         1 UNK         0.3453 
     86 H86       -72.5808   28.9892  -75.5906 H         1 UNK         0.2984 
     87 H87       -70.3134   28.4339  -72.9037 H         1 UNK         0.0554 
     88 H88       -72.5346   28.3025  -71.7870 H         1 UNK         0.0847 
     89 H89       -73.2363   27.5726  -73.2269 H         1 UNK         0.0847 
     90 H90       -72.0149   26.7044  -72.2992 H         1 UNK         0.0847 
     91 H91       -71.3968   26.5622  -74.6939 H         1 UNK         0.3141 
     92 H92       -69.2796   27.0516  -77.4957 H         1 UNK         0.0743 
     93 H93       -67.8677   25.8295  -75.8837 H         1 UNK         0.0784 
     94 H94       -69.2441   24.9014  -75.3145 H         1 UNK         0.0784 
     95 H95       -68.6661   24.7017  -76.9679 H         1 UNK         0.0784 
     96 H96       -71.2479   26.3568  -78.1326 H         1 UNK         0.3213 
     97 H97       -73.1915   25.5375  -78.3487 H         1 UNK         0.0855 
     98 H98       -72.6227   23.0922  -78.0313 H         1 UNK         0.0814 
     99 H99       -74.3436   23.3675  -78.2364 H         1 UNK         0.0814 
    100 H100      -73.6874   23.0463  -76.6315 H         1 UNK         0.0814 
    101 H101      -75.2502   25.0289  -76.5942 H         1 UNK         0.3105 
    102 H102      -75.5856   27.9648  -74.7284 H         1 UNK         0.0547 
    103 H103      -76.3529   28.9263  -76.8850 H         1 UNK         0.0837 
    104 H104      -77.1507   27.4179  -77.3030 H         1 UNK         0.0837 
    105 H105      -77.7222   28.3761  -75.9336 H         1 UNK         0.0837 
    106 H106      -77.5246   25.9852  -75.2541 H         1 UNK         0.3020 
    107 H107      -76.5292   23.7355  -72.6573 H         1 UNK         0.1245 
    108 H108      -79.1474   24.4639  -72.5773 H         1 UNK         0.0781 
    109 H109      -78.5145   26.0407  -72.8786 H         1 UNK         0.0781 
    110 H110      -75.7126   26.1448  -70.9215 H         1 UNK         0.0836 
    111 H111      -76.5097   26.6872  -69.4746 H         1 UNK         0.0836 
    112 H112      -78.4735   23.9406  -74.8537 H         1 UNK         0.3022 
    113 H113      -76.8209   21.5844  -76.8722 H         1 UNK         0.0747 
    114 H114      -78.8678   20.1816  -76.7137 H         1 UNK         0.0793 
    115 H115      -77.8747   19.9645  -75.2830 H         1 UNK         0.0793 
    116 H116      -79.3185   20.9640  -75.1975 H         1 UNK         0.0793 
    117 H117      -79.4608   22.6723  -76.9958 H         1 UNK         0.3047 
    118 H118      -78.6459   25.8813  -78.2307 H         1 UNK         0.0822 
    119 H119      -79.9725   25.2041  -80.2072 H         1 UNK         0.0807 
    120 H120      -79.7592   23.4989  -79.8071 H         1 UNK         0.0807 
    121 H121      -78.3776   24.4765  -80.2829 H         1 UNK         0.0807 
    122 H122      -81.1559   24.6587  -78.0616 H         1 UNK         0.2946 
    123 H123      -82.5982   25.5443  -76.4852 H         1 UNK         0.1144 
    124 H124      -83.2999   23.6981  -74.9160 H         1 UNK         0.0793 
    125 H125      -81.6119   23.3710  -74.5333 H         1 UNK         0.0793 
    126 H126      -82.2241   23.0822  -76.1580 H         1 UNK         0.0793 
    127 H127      -81.2014   26.1362  -73.9648 H         1 UNK         0.2896 
@<TRIPOS>BOND
     1    1    2 1    
     2    1   67 1    
     3    1   68 1    
     4    1   69 1    
     5    2    3 2    
     6    2    4 am   BACKBONE|DICT|INTERRES
     7    4    5 1    
     8    4   70 1    
     9    5    6 1    
    10    5   65 1    
    11    5   71 1    
    12    6    7 1    
    13    6   72 1    
    14    6   73 1    
    15    7    8 1    
    16    8    9 1    
    17    8   74 1    
    18    8   75 1    
    19    9   10 ar   
    20    9   14 ar   
    21   10   11 ar   
    22   10   76 1    
    23   11   12 ar   
    24   11   48 1    
    25   12   13 ar   
    26   12   77 1    
    27   13   14 ar   
    28   13   15 1    
    29   14   78 1    
    30   15   16 1    
    31   15   79 1    
    32   15   80 1    
    33   16   17 1    
    34   17   18 1    
    35   17   81 1    
    36   17   82 1    
    37   18   19 1    
    38   18   22 1    
    39   18   83 1    
    40   19   20 am   BACKBONE|DICT|INTERRES
    41   19   21 2    
    42   20   84 1    
    43   20   85 1    
    44   22   23 am   BACKBONE|DICT|INTERRES
    45   22   86 1    
    46   23   24 2    
    47   23   25 1    
    48   25   26 1    
    49   25   27 1    
    50   25   87 1    
    51   26   88 1    
    52   26   89 1    
    53   26   90 1    
    54   27   28 am   BACKBONE|DICT|INTERRES
    55   27   91 1    
    56   28   29 2    
    57   28   30 1    
    58   30   31 1    
    59   30   32 1    
    60   30   92 1    
    61   31   93 1    
    62   31   94 1    
    63   31   95 1    
    64   32   33 am   BACKBONE|DICT|INTERRES
    65   32   96 1    
    66   33   34 2    
    67   33   35 1    
    68   35   36 1    
    69   35   37 1    
    70   35   97 1    
    71   36   98 1    
    72   36   99 1    
    73   36  100 1    
    74   37   38 am   BACKBONE|DICT|INTERRES
    75   37  101 1    
    76   38   39 2    
    77   38   40 1    
    78   40   41 1    
    79   40   42 1    
    80   40  102 1    
    81   41  103 1    
    82   41  104 1    
    83   41  105 1    
    84   42   43 am   BACKBONE|DICT|INTERRES
    85   42  106 1    
    86   43   44 2    
    87   43   45 1    
    88   45   46 1    
    89   45   49 1    
    90   45  107 1    
    91   46   47 1    
    92   46  108 1    
    93   46  109 1    
    94   47   48 1    
    95   48  110 1    
    96   48  111 1    
    97   49   50 am   BACKBONE|DICT|INTERRES
    98   49  112 1    
    99   50   51 2    
   100   50   52 1    
   101   52   53 1    
   102   52   54 1    
   103   52  113 1    
   104   53  114 1    
   105   53  115 1    
   106   53  116 1    
   107   54   55 am   BACKBONE|DICT|INTERRES
   108   54  117 1    
   109   55   56 2    
   110   55   57 1    
   111   57   58 1    
   112   57   59 1    
   113   57  118 1    
   114   58  119 1    
   115   58  120 1    
   116   58  121 1    
   117   59   60 am   BACKBONE|DICT|INTERRES
   118   59  122 1    
   119   60   61 2    
   120   60   62 1    
   121   62   63 1    
   122   62   64 1    
   123   62  123 1    
   124   63  124 1    
   125   63  125 1    
   126   63  126 1    
   127   64   65 am   BACKBONE|DICT|INTERRES
   128   64  127 1    
   129   65   66 2    
@<TRIPOS>SUBSTRUCTURE
     1 UNK         1 GROUP             0       ****    0 ROOT    
