@<TRIPOS>MOLECULE
3R135
127   129    1
SMALL
USER_CHARGES


@<TRIPOS>ATOM
      1 CA        -82.3514   22.3022  -72.3567 C.3       0 UNK        -0.1998 
      2 C         -81.8419   23.6963  -72.6886 C.2       0 UNK         0.4909 
      3 O         -80.7051   23.8260  -73.1405 O.2       0 UNK        -0.5240 
      4 N         -82.6890   24.7172  -72.4802 N.am      1 UNK        -0.4739 
      5 CA        -82.4604   26.1599  -72.6762 C.3       1 UNK         0.0864 
      6 C6        -81.9560   26.8976  -71.4046 C.3       11 UNK        -0.0881 
      7 S7        -80.3909   26.3010  -70.6763 S.3       11 UNK        -0.2682 
      8 C8        -79.7464   27.8298  -69.9271 C.3       11 UNK         0.0289 
      9 C9        -78.7020   28.5223  -70.7951 C.ar      11 UNK        -0.0687 
     10 C10       -79.0798   29.2979  -71.8977 C.ar      11 UNK        -0.0823 
     11 C11       -78.1224   29.9997  -72.6409 C.ar      11 UNK        -0.0830 
     12 C12       -76.7772   29.9217  -72.2666 C.ar      11 UNK        -0.1021 
     13 C13       -76.3863   29.1414  -71.1751 C.ar      11 UNK        -0.0753 
     14 C14       -77.3501   28.4368  -70.4500 C.ar      11 UNK        -0.0933 
     15 C15       -74.9265   29.0920  -70.7592 C.3       11 UNK         0.0166 
     16 S16       -73.9923   27.9307  -71.7940 S.3       11 UNK        -0.2615 
     17 C17       -72.2956   28.2370  -71.1940 C.3       11 UNK        -0.0865 
     18 CA        -71.6487   29.5307  -71.7618 C.3       10 UNK         0.0862 
     19 C         -70.1805   29.6477  -71.2661 C.2       10 UNK         0.5551 
     20 N         -69.9455   30.3812  -70.1866 N.am      10 UNK        -0.7319 
     21 O         -69.2675   29.0390  -71.8213 O.2       10 UNK        -0.5018 
     22 N         -71.7818   29.5944  -73.2233 N.am      10 UNK        -0.4509 
     23 C         -71.3269   30.5511  -74.0409 C.2       10 UNK         0.4899 
     24 O         -70.7673   31.5768  -73.6498 O.2       10 UNK        -0.4839 
     25 CA        -71.5328   30.3147  -75.5543 C.3       9 UNK         0.0222 
     26 CB        -70.6772   31.2581  -76.4213 C.3       9 UNK        -0.1966 
     27 N         -71.2533   28.9262  -75.9419 N.am      9 UNK        -0.4218 
     28 C         -72.1006   27.9008  -75.7908 C.2       9 UNK         0.5020 
     29 O         -73.2362   28.0191  -75.3323 O.2       9 UNK        -0.5274 
     30 CA        -71.5509   26.5101  -76.1090 C.3       8 UNK         0.0270 
     31 CB        -70.8190   25.9304  -74.8829 C.3       8 UNK        -0.1976 
     32 N         -72.6448   25.6233  -76.4985 N.am      8 UNK        -0.4313 
     33 C         -72.4957   24.5434  -77.2749 C.2       8 UNK         0.5041 
     34 O         -71.4104   24.1714  -77.7259 O.2       8 UNK        -0.5577 
     35 CA        -73.7555   23.7335  -77.6194 C.3       7 UNK         0.0284 
     36 CB        -74.0771   22.7318  -76.4984 C.3       7 UNK        -0.1958 
     37 N         -74.9292   24.5623  -77.9033 N.am      7 UNK        -0.4454 
     38 C         -75.0518   25.3733  -78.9645 C.2       7 UNK         0.5089 
     39 O         -74.1790   25.5199  -79.8210 O.2       7 UNK        -0.5125 
     40 CA        -76.3759   26.1422  -79.1089 C.3       6 UNK         0.0408 
     41 CB        -77.4340   25.2674  -79.7994 C.3       6 UNK        -0.1791 
     42 N         -76.8911   26.6168  -77.8245 N.am      6 UNK        -0.4762 
     43 C         -76.3678   27.6370  -77.1280 C.2       6 UNK         0.5007 
     44 O         -75.4610   28.3510  -77.5569 O.2       6 UNK        -0.5032 
     45 CA        -76.9525   27.9005  -75.7221 C.3       5 UNK         0.0783 
     46 C46       -78.1371   28.9034  -75.7732 C.3       11 UNK        -0.0857 
     47 S47       -77.6207   30.5968  -75.3465 S.3       11 UNK        -0.2512 
     48 C48       -78.5542   30.8907  -73.8036 C.3       11 UNK         0.0225 
     49 N         -77.3311   26.6674  -75.0276 N.am      5 UNK        -0.4615 
     50 C         -76.4794   25.7048  -74.6487 C.2       4 UNK         0.5053 
     51 O         -75.2684   25.7198  -74.8648 O.2       4 UNK        -0.5105 
     52 CA        -77.1051   24.4859  -73.9553 C.3       4 UNK         0.0263 
     53 CB        -77.4557   24.8217  -72.4984 C.3       4 UNK        -0.1981 
     54 N         -78.2981   24.0028  -74.6557 N.am      4 UNK        -0.4224 
     55 C         -78.2967   23.5307  -75.9111 C.2       3 UNK         0.4895 
     56 O         -77.2837   23.4087  -76.5984 O.2       3 UNK        -0.5091 
     57 CA        -79.6589   23.1834  -76.5268 C.3       3 UNK         0.0250 
     58 CB        -80.1699   21.8269  -76.0151 C.3       3 UNK        -0.1996 
     59 N         -80.6621   24.2229  -76.2893 N.am      3 UNK        -0.4254 
     60 C         -80.6023   25.4657  -76.7892 C.2       2 UNK         0.5004 
     61 O         -79.6818   25.8785  -77.4921 O.2       2 UNK        -0.5226 
     62 CA        -81.7605   26.4137  -76.4468 C.3       2 UNK         0.0269 
     63 CB        -82.8752   26.3038  -77.4994 C.3       2 UNK        -0.1926 
     64 N         -82.3194   26.1698  -75.1157 N.am      2 UNK        -0.4687 
     65 C         -81.7048   26.5160  -73.9760 C.2       1 UNK         0.5165 
     66 O         -80.6054   27.0699  -73.9422 O.2       1 UNK        -0.5079 
     67 H67       -82.3783   21.6883  -73.2564 H         1 UNK         0.0900 
     68 H68       -81.6862   21.8243  -71.6381 H         1 UNK         0.0900 
     69 H69       -83.3533   22.3229  -71.9285 H         1 UNK         0.0900 
     70 H70       -83.6077   24.4930  -72.1241 H         1 UNK         0.2959 
     71 H71       -83.4603   26.5633  -72.8475 H         1 UNK         0.1079 
     72 H72       -81.8780   27.9654  -71.6117 H         1 UNK         0.0837 
     73 H73       -82.7155   26.8158  -70.6258 H         1 UNK         0.0837 
     74 H74       -80.5627   28.5195  -69.7080 H         1 UNK         0.0685 
     75 H75       -79.3142   27.5724  -68.9589 H         1 UNK         0.0685 
     76 H76       -80.1237   29.3689  -72.1669 H         1 UNK         0.1434 
     77 H77       -76.0314   30.4730  -72.8232 H         1 UNK         0.1329 
     78 H78       -77.0492   27.8424  -69.5982 H         1 UNK         0.1335 
     79 H79       -74.8333   28.8001  -69.7119 H         1 UNK         0.0680 
     80 H80       -74.4949   30.0900  -70.8430 H         1 UNK         0.0680 
     81 H81       -72.3073   28.2614  -70.1025 H         1 UNK         0.1032 
     82 H82       -71.6957   27.3661  -71.4664 H         1 UNK         0.1032 
     83 H83       -72.2004   30.3878  -71.3724 H         1 UNK         0.0461 
     84 H84       -70.6892   30.8756  -69.7185 H         1 UNK         0.3453 
     85 H85       -69.0016   30.4540  -69.8401 H         1 UNK         0.3453 
     86 H86       -72.2904   28.8264  -73.6467 H         1 UNK         0.2984 
     87 H87       -72.5812   30.5334  -75.7682 H         1 UNK         0.0554 
     88 H88       -70.9145   32.3028  -76.2157 H         1 UNK         0.0847 
     89 H89       -70.8566   31.0935  -77.4839 H         1 UNK         0.0847 
     90 H90       -69.6112   31.1230  -76.2345 H         1 UNK         0.0847 
     91 H91       -70.3177   28.7349  -76.2718 H         1 UNK         0.3141 
     92 H92       -70.8505   26.6047  -76.9419 H         1 UNK         0.0743 
     93 H93       -70.0105   26.5866  -74.5577 H         1 UNK         0.0784 
     94 H94       -71.4968   25.8042  -74.0371 H         1 UNK         0.0784 
     95 H95       -70.3767   24.9591  -75.1047 H         1 UNK         0.0784 
     96 H96       -73.5635   25.8796  -76.1406 H         1 UNK         0.3213 
     97 H97       -73.5353   23.1614  -78.5232 H         1 UNK         0.0855 
     98 H98       -74.3580   23.2366  -75.5738 H         1 UNK         0.0814 
     99 H99       -73.2143   22.1020  -76.2775 H         1 UNK         0.0814 
    100 H100      -74.8958   22.0700  -76.7810 H         1 UNK         0.0814 
    101 H101      -75.7233   24.4547  -77.2786 H         1 UNK         0.3105 
    102 H102      -76.1914   27.0098  -79.7459 H         1 UNK         0.0547 
    103 H103      -78.3516   25.8267  -79.9823 H         1 UNK         0.0837 
    104 H104      -77.0752   24.9081  -80.7648 H         1 UNK         0.0837 
    105 H105      -77.6905   24.3935  -79.1996 H         1 UNK         0.0837 
    106 H106      -77.7043   26.1346  -77.4521 H         1 UNK         0.3020 
    107 H107      -76.1401   28.3301  -75.1291 H         1 UNK         0.1245 
    108 H108      -78.9199   28.6109  -75.0746 H         1 UNK         0.0781 
    109 H109      -78.6272   28.9166  -76.7491 H         1 UNK         0.0781 
    110 H110      -79.6188   30.7700  -74.0108 H         1 UNK         0.0836 
    111 H111      -78.4181   31.9320  -73.5090 H         1 UNK         0.0836 
    112 H112      -78.3107   26.5615  -74.7987 H         1 UNK         0.3022 
    113 H113      -76.3682   23.6802  -73.9558 H         1 UNK         0.0747 
    114 H114      -77.8720   23.9596  -71.9772 H         1 UNK         0.0793 
    115 H115      -76.5716   25.1458  -71.9474 H         1 UNK         0.0793 
    116 H116      -78.1857   25.6298  -72.4434 H         1 UNK         0.0793 
    117 H117      -79.1822   24.0474  -74.1485 H         1 UNK         0.3047 
    118 H118      -79.5189   23.1037  -77.6071 H         1 UNK         0.0822 
    119 H119      -79.4492   21.0364  -76.2288 H         1 UNK         0.0807 
    120 H120      -81.1073   21.5479  -76.4966 H         1 UNK         0.0807 
    121 H121      -80.3336   21.8324  -74.9374 H         1 UNK         0.0807 
    122 H122      -81.4244   23.9915  -75.6697 H         1 UNK         0.2946 
    123 H123      -81.3645   27.4320  -76.4747 H         1 UNK         0.1144 
    124 H124      -83.6687   27.0280  -77.3142 H         1 UNK         0.0793 
    125 H125      -83.3232   25.3094  -77.5142 H         1 UNK         0.0793 
    126 H126      -82.4863   26.5007  -78.4996 H         1 UNK         0.0793 
    127 H127      -83.2154   25.7056  -75.0686 H         1 UNK         0.2896 
@<TRIPOS>BOND
     1    1    2 1    
     2    1   67 1    
     3    1   68 1    
     4    1   69 1    
     5    2    3 2    
     6    2    4 am   BACKBONE|DICT|INTERRES
     7    4    5 1    
     8    4   70 1    
     9    5    6 1    
    10    5   65 1    
    11    5   71 1    
    12    6    7 1    
    13    6   72 1    
    14    6   73 1    
    15    7    8 1    
    16    8    9 1    
    17    8   74 1    
    18    8   75 1    
    19    9   10 ar   
    20    9   14 ar   
    21   10   11 ar   
    22   10   76 1    
    23   11   12 ar   
    24   11   48 1    
    25   12   13 ar   
    26   12   77 1    
    27   13   14 ar   
    28   13   15 1    
    29   14   78 1    
    30   15   16 1    
    31   15   79 1    
    32   15   80 1    
    33   16   17 1    
    34   17   18 1    
    35   17   81 1    
    36   17   82 1    
    37   18   19 1    
    38   18   22 1    
    39   18   83 1    
    40   19   20 am   BACKBONE|DICT|INTERRES
    41   19   21 2    
    42   20   84 1    
    43   20   85 1    
    44   22   23 am   BACKBONE|DICT|INTERRES
    45   22   86 1    
    46   23   24 2    
    47   23   25 1    
    48   25   26 1    
    49   25   27 1    
    50   25   87 1    
    51   26   88 1    
    52   26   89 1    
    53   26   90 1    
    54   27   28 am   BACKBONE|DICT|INTERRES
    55   27   91 1    
    56   28   29 2    
    57   28   30 1    
    58   30   31 1    
    59   30   32 1    
    60   30   92 1    
    61   31   93 1    
    62   31   94 1    
    63   31   95 1    
    64   32   33 am   BACKBONE|DICT|INTERRES
    65   32   96 1    
    66   33   34 2    
    67   33   35 1    
    68   35   36 1    
    69   35   37 1    
    70   35   97 1    
    71   36   98 1    
    72   36   99 1    
    73   36  100 1    
    74   37   38 am   BACKBONE|DICT|INTERRES
    75   37  101 1    
    76   38   39 2    
    77   38   40 1    
    78   40   41 1    
    79   40   42 1    
    80   40  102 1    
    81   41  103 1    
    82   41  104 1    
    83   41  105 1    
    84   42   43 am   BACKBONE|DICT|INTERRES
    85   42  106 1    
    86   43   44 2    
    87   43   45 1    
    88   45   46 1    
    89   45   49 1    
    90   45  107 1    
    91   46   47 1    
    92   46  108 1    
    93   46  109 1    
    94   47   48 1    
    95   48  110 1    
    96   48  111 1    
    97   49   50 am   BACKBONE|DICT|INTERRES
    98   49  112 1    
    99   50   51 2    
   100   50   52 1    
   101   52   53 1    
   102   52   54 1    
   103   52  113 1    
   104   53  114 1    
   105   53  115 1    
   106   53  116 1    
   107   54   55 am   BACKBONE|DICT|INTERRES
   108   54  117 1    
   109   55   56 2    
   110   55   57 1    
   111   57   58 1    
   112   57   59 1    
   113   57  118 1    
   114   58  119 1    
   115   58  120 1    
   116   58  121 1    
   117   59   60 am   BACKBONE|DICT|INTERRES
   118   59  122 1    
   119   60   61 2    
   120   60   62 1    
   121   62   63 1    
   122   62   64 1    
   123   62  123 1    
   124   63  124 1    
   125   63  125 1    
   126   63  126 1    
   127   64   65 am   BACKBONE|DICT|INTERRES
   128   64  127 1    
   129   65   66 2    
@<TRIPOS>SUBSTRUCTURE
     1 UNK         1 GROUP             0       ****    0 ROOT    
