@<TRIPOS>MOLECULE
3R135
127   129    1
SMALL
USER_CHARGES


@<TRIPOS>ATOM
      1 CA        -79.9444   26.0199  -67.8191 C.3       0 UNK        -0.1998 
      2 C         -80.9240   25.7274  -68.9456 C.2       0 UNK         0.4909 
      3 O         -81.9478   25.0821  -68.7155 O.2       0 UNK        -0.5240 
      4 N         -80.6217   26.2039  -70.1589 N.am      1 UNK        -0.4739 
      5 CA        -81.4131   25.9611  -71.3700 C.3       1 UNK         0.0864 
      6 C6        -81.0897   26.9870  -72.4840 C.3       11 UNK        -0.0881 
      7 S7        -81.6108   28.6703  -72.0144 S.3       11 UNK        -0.2682 
      8 C8        -80.0020   29.4728  -71.6926 C.3       11 UNK         0.0289 
      9 C9        -79.2489   30.0026  -72.9166 C.ar      11 UNK        -0.0687 
     10 C10       -79.6970   29.8370  -74.2359 C.ar      11 UNK        -0.0823 
     11 C11       -78.9881   30.3872  -75.3098 C.ar      11 UNK        -0.0830 
     12 C12       -77.8230   31.1206  -75.0556 C.ar      11 UNK        -0.1021 
     13 C13       -77.3380   31.2538  -73.7529 C.ar      11 UNK        -0.0753 
     14 C14       -78.0590   30.7010  -72.6921 C.ar      11 UNK        -0.0933 
     15 C15       -76.0303   31.9871  -73.4910 C.3       11 UNK         0.0166 
     16 S16       -74.5903   31.0316  -74.0675 S.3       11 UNK        -0.2615 
     17 C17       -74.7419   29.4852  -73.1031 C.3       11 UNK        -0.0865 
     18 CA        -73.3723   28.8593  -72.7301 C.3       10 UNK         0.0862 
     19 C         -73.5546   27.5775  -71.8633 C.2       10 UNK         0.5551 
     20 N         -72.9708   26.4359  -72.2111 N.am      10 UNK        -0.7319 
     21 O         -74.2385   27.6223  -70.8441 O.2       10 UNK        -0.5018 
     22 N         -72.5103   28.6623  -73.9077 N.am      10 UNK        -0.4509 
     23 C         -71.1722   28.7174  -73.8783 C.2       10 UNK         0.4899 
     24 O         -70.5244   29.0084  -72.8710 O.2       10 UNK        -0.4839 
     25 CA        -70.4334   28.3851  -75.1913 C.3       9 UNK         0.0222 
     26 CB        -68.9415   28.0560  -74.9714 C.3       9 UNK        -0.1966 
     27 N         -71.0795   27.3281  -75.9792 N.am      9 UNK        -0.4218 
     28 C         -71.3681   26.0761  -75.5835 C.2       9 UNK         0.5020 
     29 O         -71.1110   25.6444  -74.4586 O.2       9 UNK        -0.5274 
     30 CA        -72.1001   25.1596  -76.5839 C.3       8 UNK         0.0270 
     31 CB        -73.2356   24.3819  -75.8915 C.3       8 UNK        -0.1976 
     32 N         -72.6662   25.9279  -77.6940 N.am      8 UNK        -0.4313 
     33 C         -72.1984   25.9541  -78.9494 C.2       8 UNK         0.5041 
     34 O         -71.2682   25.2532  -79.3487 O.2       8 UNK        -0.5577 
     35 CA        -72.8630   26.9451  -79.9276 C.3       7 UNK         0.0284 
     36 CB        -73.8760   26.2134  -80.8231 C.3       7 UNK        -0.1958 
     37 N         -73.5330   28.0721  -79.2686 N.am      7 UNK        -0.4454 
     38 C         -72.9217   29.0122  -78.5334 C.2       7 UNK         0.5089 
     39 O         -71.7025   29.0706  -78.3782 O.2       7 UNK        -0.5125 
     40 CA        -73.8278   29.9965  -77.7715 C.3       6 UNK         0.0408 
     41 CB        -74.0636   31.2689  -78.5981 C.3       6 UNK        -0.1791 
     42 N         -75.1213   29.4273  -77.3727 N.am      6 UNK        -0.4762 
     43 C         -75.2926   28.3585  -76.5852 C.2       6 UNK         0.5007 
     44 O         -74.3448   27.7119  -76.1239 O.2       6 UNK        -0.5032 
     45 CA        -76.7383   27.9199  -76.2639 C.3       5 UNK         0.0783 
     46 C46       -77.7424   28.0399  -77.4514 C.3       11 UNK        -0.0857 
     47 S47       -78.1803   29.7517  -77.9264 S.3       11 UNK        -0.2512 
     48 C48       -79.4958   30.1880  -76.7362 C.3       11 UNK         0.0225 
     49 N         -76.6369   26.5678  -75.7232 N.am      5 UNK        -0.4615 
     50 C         -77.5963   25.8398  -75.1506 C.2       4 UNK         0.5053 
     51 O         -78.7674   26.1994  -75.0234 O.2       4 UNK        -0.5105 
     52 CA        -77.1555   24.4800  -74.6045 C.3       4 UNK         0.0263 
     53 CB        -76.8190   24.5728  -73.1056 C.3       4 UNK        -0.1981 
     54 N         -78.2221   23.5107  -74.8325 N.am      4 UNK        -0.4224 
     55 C         -78.0483   22.1958  -75.0055 C.2       3 UNK         0.4895 
     56 O         -76.9504   21.6417  -74.9201 O.2       3 UNK        -0.5091 
     57 CA        -79.3056   21.3608  -75.3298 C.3       3 UNK         0.0250 
     58 CB        -79.0068   19.8529  -75.4384 C.3       3 UNK        -0.1996 
     59 N         -80.3727   21.5580  -74.3458 N.am      3 UNK        -0.4254 
     60 C         -81.2182   22.5954  -74.3204 C.2       2 UNK         0.5004 
     61 O         -81.1954   23.5048  -75.1525 O.2       2 UNK        -0.5226 
     62 CA        -82.2559   22.6526  -73.1814 C.3       2 UNK         0.0269 
     63 CB        -82.1430   21.5075  -72.1469 C.3       2 UNK        -0.1926 
     64 N         -82.2375   23.9623  -72.5177 N.am      2 UNK        -0.4687 
     65 C         -81.1988   24.5221  -71.8784 C.2       1 UNK         0.5165 
     66 O         -80.1103   23.9665  -71.7079 O.2       1 UNK        -0.5079 
     67 H67       -79.0916   26.6065  -68.1617 H         1 UNK         0.0900 
     68 H68       -80.4415   26.5765  -67.0247 H         1 UNK         0.0900 
     69 H69       -79.5677   25.0873  -67.3989 H         1 UNK         0.0900 
     70 H70       -79.7518   26.6953  -70.2970 H         1 UNK         0.2959 
     71 H71       -82.4685   26.0636  -71.1063 H         1 UNK         0.1079 
     72 H72       -81.6116   26.7329  -73.4089 H         1 UNK         0.0837 
     73 H73       -80.0260   26.9750  -72.7302 H         1 UNK         0.0837 
     74 H74       -80.1884   30.3122  -71.0209 H         1 UNK         0.0685 
     75 H75       -79.3585   28.7833  -71.1446 H         1 UNK         0.0685 
     76 H76       -80.6028   29.2849  -74.4399 H         1 UNK         0.1434 
     77 H77       -77.2682   31.5585  -75.8742 H         1 UNK         0.1329 
     78 H78       -77.6944   30.8197  -71.6806 H         1 UNK         0.1335 
     79 H79       -76.0457   32.9489  -74.0059 H         1 UNK         0.0680 
     80 H80       -75.9116   32.2095  -72.4292 H         1 UNK         0.0680 
     81 H81       -75.3473   28.7753  -73.6661 H         1 UNK         0.1032 
     82 H82       -75.3052   29.7007  -72.1934 H         1 UNK         0.1032 
     83 H83       -72.8786   29.5786  -72.0741 H         1 UNK         0.0461 
     84 H84       -72.3681   26.3762  -73.0238 H         1 UNK         0.3453 
     85 H85       -73.0995   25.6254  -71.6277 H         1 UNK         0.3453 
     86 H86       -72.9820   28.3882  -74.7624 H         1 UNK         0.2984 
     87 H87       -70.4847   29.2889  -75.7999 H         1 UNK         0.0554 
     88 H88       -68.4200   28.8908  -74.5016 H         1 UNK         0.0847 
     89 H89       -68.4366   27.8524  -75.9155 H         1 UNK         0.0847 
     90 H90       -68.8109   27.1864  -74.3264 H         1 UNK         0.0847 
     91 H91       -71.3396   27.6037  -76.9196 H         1 UNK         0.3141 
     92 H92       -71.3686   24.4391  -76.9547 H         1 UNK         0.0743 
     93 H93       -73.9276   25.0512  -75.3809 H         1 UNK         0.0784 
     94 H94       -73.8039   23.7840  -76.6042 H         1 UNK         0.0784 
     95 H95       -72.8385   23.6964  -75.1417 H         1 UNK         0.0784 
     96 H96       -73.4046   26.5742  -77.4351 H         1 UNK         0.3213 
     97 H97       -72.0731   27.3527  -80.5623 H         1 UNK         0.0855 
     98 H98       -74.7024   25.7987  -80.2444 H         1 UNK         0.0814 
     99 H99       -73.4018   25.3854  -81.3520 H         1 UNK         0.0814 
    100 H100      -74.2935   26.8794  -81.5784 H         1 UNK         0.0814 
    101 H101      -74.5395   28.1098  -79.3391 H         1 UNK         0.3105 
    102 H102      -73.3010   30.2782  -76.8573 H         1 UNK         0.0547 
    103 H103      -73.1170   31.7248  -78.8919 H         1 UNK         0.0837 
    104 H104      -74.6235   31.0612  -79.5106 H         1 UNK         0.0837 
    105 H105      -74.6160   32.0149  -78.0265 H         1 UNK         0.0837 
    106 H106      -75.9521   29.8930  -77.7184 H         1 UNK         0.3020 
    107 H107      -77.0771   28.5447  -75.4396 H         1 UNK         0.1245 
    108 H108      -78.6772   27.5305  -77.2177 H         1 UNK         0.0781 
    109 H109      -77.3488   27.5272  -78.3308 H         1 UNK         0.0781 
    110 H110      -80.2705   29.4203  -76.7717 H         1 UNK         0.0836 
    111 H111      -79.9674   31.1150  -77.0646 H         1 UNK         0.0836 
    112 H112      -75.6848   26.2238  -75.7311 H         1 UNK         0.3022 
    113 H113      -76.2661   24.1583  -75.1506 H         1 UNK         0.0747 
    114 H114      -76.4961   23.6098  -72.7100 H         1 UNK         0.0793 
    115 H115      -76.0111   25.2841  -72.9285 H         1 UNK         0.0793 
    116 H116      -77.6793   24.9024  -72.5219 H         1 UNK         0.0793 
    117 H117      -79.1546   23.9041  -74.9329 H         1 UNK         0.3047 
    118 H118      -79.6622   21.6945  -76.3070 H         1 UNK         0.0822 
    119 H119      -79.8982   19.2903  -75.7165 H         1 UNK         0.0807 
    120 H120      -78.6324   19.4462  -74.4980 H         1 UNK         0.0807 
    121 H121      -78.2530   19.6569  -76.2023 H         1 UNK         0.0807 
    122 H122      -80.4261   20.8805  -73.5989 H         1 UNK         0.2946 
    123 H123      -83.2301   22.5628  -73.6651 H         1 UNK         0.1144 
    124 H124      -82.2841   20.5332  -72.6167 H         1 UNK         0.0793 
    125 H125      -82.9119   21.6002  -71.3795 H         1 UNK         0.0793 
    126 H126      -81.1769   21.4981  -71.6407 H         1 UNK         0.0793 
    127 H127      -83.0765   24.5135  -72.6366 H         1 UNK         0.2896 
@<TRIPOS>BOND
     1    1    2 1    
     2    1   67 1    
     3    1   68 1    
     4    1   69 1    
     5    2    3 2    
     6    2    4 am   BACKBONE|DICT|INTERRES
     7    4    5 1    
     8    4   70 1    
     9    5    6 1    
    10    5   65 1    
    11    5   71 1    
    12    6    7 1    
    13    6   72 1    
    14    6   73 1    
    15    7    8 1    
    16    8    9 1    
    17    8   74 1    
    18    8   75 1    
    19    9   10 ar   
    20    9   14 ar   
    21   10   11 ar   
    22   10   76 1    
    23   11   12 ar   
    24   11   48 1    
    25   12   13 ar   
    26   12   77 1    
    27   13   14 ar   
    28   13   15 1    
    29   14   78 1    
    30   15   16 1    
    31   15   79 1    
    32   15   80 1    
    33   16   17 1    
    34   17   18 1    
    35   17   81 1    
    36   17   82 1    
    37   18   19 1    
    38   18   22 1    
    39   18   83 1    
    40   19   20 am   BACKBONE|DICT|INTERRES
    41   19   21 2    
    42   20   84 1    
    43   20   85 1    
    44   22   23 am   BACKBONE|DICT|INTERRES
    45   22   86 1    
    46   23   24 2    
    47   23   25 1    
    48   25   26 1    
    49   25   27 1    
    50   25   87 1    
    51   26   88 1    
    52   26   89 1    
    53   26   90 1    
    54   27   28 am   BACKBONE|DICT|INTERRES
    55   27   91 1    
    56   28   29 2    
    57   28   30 1    
    58   30   31 1    
    59   30   32 1    
    60   30   92 1    
    61   31   93 1    
    62   31   94 1    
    63   31   95 1    
    64   32   33 am   BACKBONE|DICT|INTERRES
    65   32   96 1    
    66   33   34 2    
    67   33   35 1    
    68   35   36 1    
    69   35   37 1    
    70   35   97 1    
    71   36   98 1    
    72   36   99 1    
    73   36  100 1    
    74   37   38 am   BACKBONE|DICT|INTERRES
    75   37  101 1    
    76   38   39 2    
    77   38   40 1    
    78   40   41 1    
    79   40   42 1    
    80   40  102 1    
    81   41  103 1    
    82   41  104 1    
    83   41  105 1    
    84   42   43 am   BACKBONE|DICT|INTERRES
    85   42  106 1    
    86   43   44 2    
    87   43   45 1    
    88   45   46 1    
    89   45   49 1    
    90   45  107 1    
    91   46   47 1    
    92   46  108 1    
    93   46  109 1    
    94   47   48 1    
    95   48  110 1    
    96   48  111 1    
    97   49   50 am   BACKBONE|DICT|INTERRES
    98   49  112 1    
    99   50   51 2    
   100   50   52 1    
   101   52   53 1    
   102   52   54 1    
   103   52  113 1    
   104   53  114 1    
   105   53  115 1    
   106   53  116 1    
   107   54   55 am   BACKBONE|DICT|INTERRES
   108   54  117 1    
   109   55   56 2    
   110   55   57 1    
   111   57   58 1    
   112   57   59 1    
   113   57  118 1    
   114   58  119 1    
   115   58  120 1    
   116   58  121 1    
   117   59   60 am   BACKBONE|DICT|INTERRES
   118   59  122 1    
   119   60   61 2    
   120   60   62 1    
   121   62   63 1    
   122   62   64 1    
   123   62  123 1    
   124   63  124 1    
   125   63  125 1    
   126   63  126 1    
   127   64   65 am   BACKBONE|DICT|INTERRES
   128   64  127 1    
   129   65   66 2    
@<TRIPOS>SUBSTRUCTURE
     1 UNK         1 GROUP             0       ****    0 ROOT    
