@<TRIPOS>MOLECULE
3R135
127   129    1
SMALL
USER_CHARGES


@<TRIPOS>ATOM
      1 CA        -85.6339   30.2533  -74.7477 C.3       0 UNK        -0.1998 
      2 C         -84.2757   29.6275  -75.0280 C.2       0 UNK         0.4909 
      3 O         -84.0558   29.1044  -76.1214 O.2       0 UNK        -0.5240 
      4 N         -83.3605   29.6866  -74.0532 N.am      1 UNK        -0.4739 
      5 CA        -82.0288   29.0756  -74.1122 C.3       1 UNK         0.0864 
      6 C6        -81.0416   29.7298  -73.1106 C.3       11 UNK        -0.0881 
      7 S7        -81.6659   29.9112  -71.3993 S.3       11 UNK        -0.2682 
      8 C8        -80.9841   28.4352  -70.5624 C.3       11 UNK         0.0289 
      9 C9        -79.4581   28.3306  -70.4862 C.ar      11 UNK        -0.0687 
     10 C10       -78.9052   27.0994  -70.1150 C.ar      11 UNK        -0.0823 
     11 C11       -77.5202   26.9255  -70.0573 C.ar      11 UNK        -0.0830 
     12 C12       -76.6808   28.0051  -70.3383 C.ar      11 UNK        -0.1021 
     13 C13       -77.2107   29.2227  -70.7625 C.ar      11 UNK        -0.0753 
     14 C14       -78.5973   29.3943  -70.8003 C.ar      11 UNK        -0.0933 
     15 C15       -76.2730   30.3052  -71.2719 C.3       11 UNK         0.0166 
     16 S16       -75.7003   29.8746  -72.9489 S.3       11 UNK        -0.2615 
     17 C17       -74.5726   31.2558  -73.3201 C.3       11 UNK        -0.0865 
     18 CA        -73.5898   30.9216  -74.4745 C.3       10 UNK         0.0862 
     19 C         -72.8128   32.1991  -74.8981 C.2       10 UNK         0.5551 
     20 N         -73.3140   32.9325  -75.8823 N.am      10 UNK        -0.7319 
     21 O         -71.7920   32.5532  -74.3106 O.2       10 UNK        -0.5018 
     22 N         -72.6964   29.8057  -74.1211 N.am      10 UNK        -0.4509 
     23 C         -71.8207   29.2186  -74.9489 C.2       10 UNK         0.4899 
     24 O         -71.7205   29.4900  -76.1456 O.2       10 UNK        -0.4839 
     25 CA        -70.8758   28.1645  -74.3507 C.3       9 UNK         0.0222 
     26 CB        -70.8771   28.1048  -72.8073 C.3       9 UNK        -0.1966 
     27 N         -71.2209   26.8524  -74.8890 N.am      9 UNK        -0.4218 
     28 C         -70.3553   25.8717  -75.1670 C.2       9 UNK         0.5020 
     29 O         -69.1321   25.9883  -75.0714 O.2       9 UNK        -0.5274 
     30 CA        -70.9448   24.5133  -75.5870 C.3       8 UNK         0.0270 
     31 CB        -71.3523   23.7029  -74.3454 C.3       8 UNK        -0.1976 
     32 N         -72.0877   24.6135  -76.4986 N.am      8 UNK        -0.4313 
     33 C         -71.9983   24.9661  -77.7891 C.2       8 UNK         0.5041 
     34 O         -70.9416   25.2676  -78.3456 O.2       8 UNK        -0.5577 
     35 CA        -73.3030   24.9669  -78.6051 C.3       7 UNK         0.0284 
     36 CB        -73.6927   23.5383  -79.0183 C.3       7 UNK        -0.1958 
     37 N         -74.4091   25.5902  -77.8790 N.am      7 UNK        -0.4454 
     38 C         -74.5168   26.9080  -77.6595 C.2       7 UNK         0.5089 
     39 O         -73.7654   27.7471  -78.1550 O.2       7 UNK        -0.5125 
     40 CA        -75.6406   27.3714  -76.7154 C.3       6 UNK         0.0408 
     41 CB        -76.9257   27.6655  -77.5039 C.3       6 UNK        -0.1791 
     42 N         -75.9319   26.4121  -75.6472 N.am      6 UNK        -0.4762 
     43 C         -75.0640   26.0508  -74.6908 C.2       6 UNK         0.5007 
     44 O         -73.9258   26.5029  -74.5952 O.2       6 UNK        -0.5032 
     45 CA        -75.5261   24.9767  -73.6913 C.3       5 UNK         0.0783 
     46 C46       -76.3635   25.6356  -72.5801 C.3       11 UNK        -0.0857 
     47 S47       -76.9469   24.4916  -71.2802 S.3       11 UNK        -0.2512 
     48 C48       -76.9183   25.5521  -69.7888 C.3       11 UNK         0.0225 
     49 N         -76.2168   23.8800  -74.3684 N.am      5 UNK        -0.4615 
     50 C         -75.6135   23.0197  -75.1987 C.2       4 UNK         0.5053 
     51 O         -74.4130   23.0564  -75.4697 O.2       4 UNK        -0.5105 
     52 CA        -76.5124   21.9730  -75.8734 C.3       4 UNK         0.0263 
     53 CB        -76.7987   20.8038  -74.9178 C.3       4 UNK        -0.1981 
     54 N         -77.7741   22.5465  -76.3477 N.am      4 UNK        -0.4224 
     55 C         -77.8638   23.4677  -77.3175 C.2       3 UNK         0.4895 
     56 O         -76.8966   23.9129  -77.9353 O.2       3 UNK        -0.5091 
     57 CA        -79.2686   24.0073  -77.6277 C.3       3 UNK         0.0250 
     58 CB        -80.0178   23.0546  -78.5733 C.3       3 UNK        -0.1996 
     59 N         -80.0876   24.2689  -76.4373 N.am      3 UNK        -0.4254 
     60 C         -79.7746   25.1540  -75.4812 C.2       2 UNK         0.5004 
     61 O         -78.7067   25.7683  -75.4326 O.2       2 UNK        -0.5226 
     62 CA        -80.8309   25.4328  -74.4100 C.3       2 UNK         0.0269 
     63 CB        -80.4035   24.8861  -73.0367 C.3       2 UNK        -0.1926 
     64 N         -80.9855   26.8814  -74.3520 N.am      2 UNK        -0.4687 
     65 C         -82.0823   27.5388  -73.9636 C.2       1 UNK         0.5165 
     66 O         -83.0851   26.9830  -73.5063 O.2       1 UNK        -0.5079 
     67 H67       -86.4170   29.4996  -74.8259 H         1 UNK         0.0900 
     68 H68       -85.8425   31.0389  -75.4734 H         1 UNK         0.0900 
     69 H69       -85.6829   30.6908  -73.7507 H         1 UNK         0.0900 
     70 H70       -83.5990   30.1000  -73.1625 H         1 UNK         0.2959 
     71 H71       -81.6364   29.2650  -75.1145 H         1 UNK         0.1079 
     72 H72       -80.0838   29.2076  -73.1109 H         1 UNK         0.0837 
     73 H73       -80.8086   30.7359  -73.4627 H         1 UNK         0.0837 
     74 H74       -81.3764   28.4160  -69.5449 H         1 UNK         0.0685 
     75 H75       -81.3813   27.5485  -71.0585 H         1 UNK         0.0685 
     76 H76       -79.5541   26.2594  -69.9065 H         1 UNK         0.1434 
     77 H77       -75.6075   27.8727  -70.3206 H         1 UNK         0.1329 
     78 H78       -78.9939   30.3472  -71.1190 H         1 UNK         0.1335 
     79 H79       -76.7729   31.2749  -71.2925 H         1 UNK         0.0680 
     80 H80       -75.4177   30.4022  -70.6013 H         1 UNK         0.0680 
     81 H81       -74.0219   31.5297  -72.4179 H         1 UNK         0.1032 
     82 H82       -75.1881   32.1206  -73.5763 H         1 UNK         0.1032 
     83 H83       -74.1775   30.5905  -75.3335 H         1 UNK         0.0461 
     84 H84       -74.1556   32.6552  -76.3632 H         1 UNK         0.3453 
     85 H85       -72.8337   33.7743  -76.1600 H         1 UNK         0.3453 
     86 H86       -72.7184   29.5135  -73.1564 H         1 UNK         0.2984 
     87 H87       -69.8712   28.4395  -74.6784 H         1 UNK         0.0554 
     88 H88       -70.1183   27.4111  -72.4445 H         1 UNK         0.0847 
     89 H89       -71.8380   27.7724  -72.4118 H         1 UNK         0.0847 
     90 H90       -70.6487   29.0785  -72.3716 H         1 UNK         0.0847 
     91 H91       -72.2223   26.6713  -74.9775 H         1 UNK         0.3141 
     92 H92       -70.1562   23.9599  -76.1015 H         1 UNK         0.0743 
     93 H93       -72.1606   24.1868  -73.7959 H         1 UNK         0.0784 
     94 H94       -71.6861   22.7014  -74.6175 H         1 UNK         0.0784 
     95 H95       -70.5122   23.5894  -73.6589 H         1 UNK         0.0784 
     96 H96       -72.9895   24.3219  -76.1333 H         1 UNK         0.3213 
     97 H97       -73.1252   25.5428  -79.5162 H         1 UNK         0.0855 
     98 H98       -73.9095   22.9091  -78.1545 H         1 UNK         0.0814 
     99 H99       -72.8870   23.0603  -79.5769 H         1 UNK         0.0814 
    100 H100      -74.5755   23.5391  -79.6580 H         1 UNK         0.0814 
    101 H101      -75.1276   24.9762  -77.5101 H         1 UNK         0.3105 
    102 H102      -75.3112   28.2988  -76.2416 H         1 UNK         0.0547 
    103 H103      -76.7430   28.3993  -78.2898 H         1 UNK         0.0837 
    104 H104      -77.3193   26.7666  -77.9795 H         1 UNK         0.0837 
    105 H105      -77.7039   28.0695  -76.8563 H         1 UNK         0.0837 
    106 H106      -76.8749   26.0271  -75.6248 H         1 UNK         0.3020 
    107 H107      -74.6284   24.5602  -73.2283 H         1 UNK         0.1245 
    108 H108      -77.2295   26.1574  -72.9929 H         1 UNK         0.0781 
    109 H109      -75.7381   26.3957  -72.1152 H         1 UNK         0.0781 
    110 H110      -75.8885   25.6486  -69.4411 H         1 UNK         0.0836 
    111 H111      -77.4661   25.0568  -68.9859 H         1 UNK         0.0836 
    112 H112      -77.2117   23.8113  -74.2169 H         1 UNK         0.3022 
    113 H113      -75.9734   21.5830  -76.7397 H         1 UNK         0.0747 
    114 H114      -77.3693   20.0178  -75.4127 H         1 UNK         0.0793 
    115 H115      -75.8694   20.3539  -74.5651 H         1 UNK         0.0793 
    116 H116      -77.3594   21.1242  -74.0387 H         1 UNK         0.0793 
    117 H117      -78.6222   22.2398  -75.8941 H         1 UNK         0.3047 
    118 H118      -79.1380   24.9599  -78.1457 H         1 UNK         0.0822 
    119 H119      -80.9680   23.4809  -78.8956 H         1 UNK         0.0807 
    120 H120      -80.2233   22.0925  -78.1023 H         1 UNK         0.0807 
    121 H121      -79.4326   22.8583  -79.4731 H         1 UNK         0.0807 
    122 H122      -80.9840   23.8047  -76.3988 H         1 UNK         0.2946 
    123 H123      -81.7778   24.9750  -74.7056 H         1 UNK         0.1144 
    124 H124      -79.4983   25.3741  -72.6762 H         1 UNK         0.0793 
    125 H125      -80.2052   23.8147  -73.0821 H         1 UNK         0.0793 
    126 H126      -81.1818   25.0415  -72.2897 H         1 UNK         0.0793 
    127 H127      -80.1925   27.3909  -74.7219 H         1 UNK         0.2896 
@<TRIPOS>BOND
     1    1    2 1    
     2    1   67 1    
     3    1   68 1    
     4    1   69 1    
     5    2    3 2    
     6    2    4 am   BACKBONE|DICT|INTERRES
     7    4    5 1    
     8    4   70 1    
     9    5    6 1    
    10    5   65 1    
    11    5   71 1    
    12    6    7 1    
    13    6   72 1    
    14    6   73 1    
    15    7    8 1    
    16    8    9 1    
    17    8   74 1    
    18    8   75 1    
    19    9   10 ar   
    20    9   14 ar   
    21   10   11 ar   
    22   10   76 1    
    23   11   12 ar   
    24   11   48 1    
    25   12   13 ar   
    26   12   77 1    
    27   13   14 ar   
    28   13   15 1    
    29   14   78 1    
    30   15   16 1    
    31   15   79 1    
    32   15   80 1    
    33   16   17 1    
    34   17   18 1    
    35   17   81 1    
    36   17   82 1    
    37   18   19 1    
    38   18   22 1    
    39   18   83 1    
    40   19   20 am   BACKBONE|DICT|INTERRES
    41   19   21 2    
    42   20   84 1    
    43   20   85 1    
    44   22   23 am   BACKBONE|DICT|INTERRES
    45   22   86 1    
    46   23   24 2    
    47   23   25 1    
    48   25   26 1    
    49   25   27 1    
    50   25   87 1    
    51   26   88 1    
    52   26   89 1    
    53   26   90 1    
    54   27   28 am   BACKBONE|DICT|INTERRES
    55   27   91 1    
    56   28   29 2    
    57   28   30 1    
    58   30   31 1    
    59   30   32 1    
    60   30   92 1    
    61   31   93 1    
    62   31   94 1    
    63   31   95 1    
    64   32   33 am   BACKBONE|DICT|INTERRES
    65   32   96 1    
    66   33   34 2    
    67   33   35 1    
    68   35   36 1    
    69   35   37 1    
    70   35   97 1    
    71   36   98 1    
    72   36   99 1    
    73   36  100 1    
    74   37   38 am   BACKBONE|DICT|INTERRES
    75   37  101 1    
    76   38   39 2    
    77   38   40 1    
    78   40   41 1    
    79   40   42 1    
    80   40  102 1    
    81   41  103 1    
    82   41  104 1    
    83   41  105 1    
    84   42   43 am   BACKBONE|DICT|INTERRES
    85   42  106 1    
    86   43   44 2    
    87   43   45 1    
    88   45   46 1    
    89   45   49 1    
    90   45  107 1    
    91   46   47 1    
    92   46  108 1    
    93   46  109 1    
    94   47   48 1    
    95   48  110 1    
    96   48  111 1    
    97   49   50 am   BACKBONE|DICT|INTERRES
    98   49  112 1    
    99   50   51 2    
   100   50   52 1    
   101   52   53 1    
   102   52   54 1    
   103   52  113 1    
   104   53  114 1    
   105   53  115 1    
   106   53  116 1    
   107   54   55 am   BACKBONE|DICT|INTERRES
   108   54  117 1    
   109   55   56 2    
   110   55   57 1    
   111   57   58 1    
   112   57   59 1    
   113   57  118 1    
   114   58  119 1    
   115   58  120 1    
   116   58  121 1    
   117   59   60 am   BACKBONE|DICT|INTERRES
   118   59  122 1    
   119   60   61 2    
   120   60   62 1    
   121   62   63 1    
   122   62   64 1    
   123   62  123 1    
   124   63  124 1    
   125   63  125 1    
   126   63  126 1    
   127   64   65 am   BACKBONE|DICT|INTERRES
   128   64  127 1    
   129   65   66 2    
@<TRIPOS>SUBSTRUCTURE
     1 UNK         1 GROUP             0       ****    0 ROOT    
