@<TRIPOS>MOLECULE
3R135
127   129    1
SMALL
USER_CHARGES


@<TRIPOS>ATOM
      1 CA        -85.7594   29.1748  -75.8124 C.3       0 UNK        -0.1998 
      2 C         -84.5856   28.2758  -75.4551 C.2       0 UNK         0.4909 
      3 O         -84.7885   27.0983  -75.1565 O.2       0 UNK        -0.5240 
      4 N         -83.3606   28.8202  -75.4939 N.am      1 UNK        -0.4739 
      5 CA        -82.0733   28.1710  -75.1985 C.3       1 UNK         0.0864 
      6 C6        -82.0112   27.5474  -73.7762 C.3       11 UNK        -0.0881 
      7 S7        -80.3032   27.3227  -73.1781 S.3       11 UNK        -0.2682 
      8 C8        -80.1582   28.6939  -71.9929 C.3       11 UNK         0.0289 
      9 C9        -78.7400   28.8231  -71.4549 C.ar      11 UNK        -0.0687 
     10 C10       -78.2084   27.8276  -70.6285 C.ar      11 UNK        -0.0823 
     11 C11       -76.9133   27.9483  -70.1154 C.ar      11 UNK        -0.0830 
     12 C12       -76.1634   29.0894  -70.4059 C.ar      11 UNK        -0.1021 
     13 C13       -76.6740   30.0832  -71.2444 C.ar      11 UNK        -0.0753 
     14 C14       -77.9631   29.9436  -71.7689 C.ar      11 UNK        -0.0933 
     15 C15       -75.8338   31.3081  -71.5760 C.3       11 UNK         0.0166 
     16 S16       -74.6924   30.9901  -72.9585 S.3       11 UNK        -0.2615 
     17 C17       -73.4458   29.9133  -72.1651 C.3       11 UNK        -0.0865 
     18 CA        -72.0548   29.9877  -72.8460 C.3       10 UNK         0.0862 
     19 C         -70.9858   29.1580  -72.0733 C.2       10 UNK         0.5551 
     20 N         -70.2019   28.2993  -72.7168 N.am      10 UNK        -0.7319 
     21 O         -70.8516   29.3094  -70.8615 O.2       10 UNK        -0.5018 
     22 N         -72.1345   29.6617  -74.2769 N.am      10 UNK        -0.4509 
     23 C         -71.3534   30.1936  -75.2235 C.2       10 UNK         0.4899 
     24 O         -70.5051   31.0612  -75.0077 O.2       10 UNK        -0.4839 
     25 CA        -71.5576   29.6498  -76.6486 C.3       9 UNK         0.0222 
     26 CB        -70.4366   30.0683  -77.6242 C.3       9 UNK        -0.1966 
     27 N         -71.7618   28.1965  -76.6782 N.am      9 UNK        -0.4218 
     28 C         -70.9083   27.2414  -76.2737 C.2       9 UNK         0.5020 
     29 O         -69.8149   27.4890  -75.7623 O.2       9 UNK        -0.5274 
     30 CA        -71.3296   25.7636  -76.4386 C.3       8 UNK         0.0270 
     31 CB        -71.0730   24.9670  -75.1463 C.3       8 UNK        -0.1976 
     32 N         -72.7284   25.5796  -76.8342 N.am      8 UNK        -0.4313 
     33 C         -73.2347   25.7825  -78.0582 C.2       8 UNK         0.5041 
     34 O         -72.5506   26.0589  -79.0436 O.2       8 UNK        -0.5577 
     35 CA        -74.7692   25.7380  -78.1911 C.3       7 UNK         0.0284 
     36 CB        -75.2347   24.3283  -78.5819 C.3       7 UNK        -0.1958 
     37 N         -75.4700   26.1847  -76.9781 N.am      7 UNK        -0.4454 
     38 C         -75.3710   27.4214  -76.4635 C.2       7 UNK         0.5089 
     39 O         -74.7011   28.3183  -76.9754 O.2       7 UNK        -0.5125 
     40 CA        -76.0982   27.7016  -75.1403 C.3       6 UNK         0.0408 
     41 CB        -77.5462   28.1309  -75.3961 C.3       6 UNK        -0.1791 
     42 N         -76.0716   26.5542  -74.2330 N.am      6 UNK        -0.4762 
     43 C         -74.9865   26.1747  -73.5430 C.2       6 UNK         0.5007 
     44 O         -73.9067   26.7656  -73.5929 O.2       6 UNK        -0.5032 
     45 CA        -75.1119   24.8730  -72.7205 C.3       5 UNK         0.0783 
     46 C46       -75.9078   25.0690  -71.4065 C.3       11 UNK        -0.0857 
     47 S47       -74.9737   25.9649  -70.1229 S.3       11 UNK        -0.2512 
     48 C48       -76.3112   26.8486  -69.2533 C.3       11 UNK         0.0225 
     49 N         -75.6907   23.7826  -73.5102 N.am      5 UNK        -0.4615 
     50 C         -75.1699   23.2725  -74.6334 C.2       4 UNK         0.5053 
     51 O         -74.1138   23.6522  -75.1350 O.2       4 UNK        -0.5105 
     52 CA        -75.9784   22.1657  -75.3313 C.3       4 UNK         0.0263 
     53 CB        -75.5387   20.7846  -74.8200 C.3       4 UNK        -0.1981 
     54 N         -77.4324   22.2968  -75.1900 N.am      4 UNK        -0.4224 
     55 C         -78.1675   23.3495  -75.5756 C.2       3 UNK         0.4895 
     56 O         -77.7014   24.3892  -76.0524 O.2       3 UNK        -0.5091 
     57 CA        -79.6751   23.2177  -75.3410 C.3       3 UNK         0.0250 
     58 CB        -80.0221   23.4845  -73.8651 C.3       3 UNK        -0.1996 
     59 N         -80.3977   24.1598  -76.1915 N.am      3 UNK        -0.4254 
     60 C         -81.6088   23.9449  -76.7187 C.2       2 UNK         0.5004 
     61 O         -82.2538   22.9085  -76.5448 O.2       2 UNK        -0.5226 
     62 CA        -82.2184   25.1006  -77.5329 C.3       2 UNK         0.0269 
     63 CB        -83.5151   24.7002  -78.2616 C.3       2 UNK        -0.1926 
     64 N         -82.5084   26.2240  -76.6433 N.am      2 UNK        -0.4687 
     65 C         -81.6339   27.1717  -76.2910 C.2       1 UNK         0.5165 
     66 O         -80.5156   27.2704  -76.7955 O.2       1 UNK        -0.5079 
     67 H67       -86.4564   29.2300  -74.9767 H         1 UNK         0.0900 
     68 H68       -86.2914   28.7719  -76.6739 H         1 UNK         0.0900 
     69 H69       -85.4396   30.1881  -76.0546 H         1 UNK         0.0900 
     70 H70       -83.2801   29.7869  -75.7793 H         1 UNK         0.2959 
     71 H71       -81.3460   28.9847  -75.2277 H         1 UNK         0.1079 
     72 H72       -82.5191   26.5816  -73.7454 H         1 UNK         0.0837 
     73 H73       -82.5473   28.1808  -73.0678 H         1 UNK         0.0837 
     74 H74       -80.8465   28.5290  -71.1627 H         1 UNK         0.0685 
     75 H75       -80.4702   29.6200  -72.4783 H         1 UNK         0.0685 
     76 H76       -78.8030   26.9540  -70.3980 H         1 UNK         0.1434 
     77 H77       -75.1691   29.1877  -69.9941 H         1 UNK         0.1329 
     78 H78       -78.3631   30.7125  -72.4156 H         1 UNK         0.1335 
     79 H79       -76.4826   32.1427  -71.8458 H         1 UNK         0.0680 
     80 H80       -75.2736   31.6333  -70.6980 H         1 UNK         0.0680 
     81 H81       -73.3548   30.2091  -71.1187 H         1 UNK         0.1032 
     82 H82       -73.8197   28.8892  -72.1597 H         1 UNK         0.1032 
     83 H83       -71.7248   31.0245  -72.7569 H         1 UNK         0.0461 
     84 H84       -69.5138   27.7793  -72.1966 H         1 UNK         0.3453 
     85 H85       -70.2667   28.1842  -73.7195 H         1 UNK         0.3453 
     86 H86       -72.7877   28.9319  -74.5263 H         1 UNK         0.2984 
     87 H87       -72.4870   30.0925  -77.0095 H         1 UNK         0.0554 
     88 H88       -70.6204   29.6843  -78.6276 H         1 UNK         0.0847 
     89 H89       -69.4603   29.7066  -77.2999 H         1 UNK         0.0847 
     90 H90       -70.3707   31.1542  -77.7012 H         1 UNK         0.0847 
     91 H91       -72.6702   27.9076  -77.0251 H         1 UNK         0.3141 
     92 H92       -70.6975   25.3433  -77.2234 H         1 UNK         0.0743 
     93 H93       -70.0235   25.0130  -74.8528 H         1 UNK         0.0784 
     94 H94       -71.6625   25.3524  -74.3136 H         1 UNK         0.0784 
     95 H95       -71.3234   23.9137  -75.2737 H         1 UNK         0.0784 
     96 H96       -73.3612   25.2681  -76.1028 H         1 UNK         0.3213 
     97 H97       -75.0507   26.4222  -78.9945 H         1 UNK         0.0855 
     98 H98       -74.8481   23.5779  -77.8947 H         1 UNK         0.0814 
     99 H99       -74.8726   24.0661  -79.5768 H         1 UNK         0.0814 
    100 H100      -76.3220   24.2504  -78.5995 H         1 UNK         0.0814 
    101 H101      -76.0865   25.5170  -76.5240 H         1 UNK         0.3105 
    102 H102      -75.5872   28.5362  -74.6553 H         1 UNK         0.0547 
    103 H103      -78.0007   28.5236  -74.4879 H         1 UNK         0.0837 
    104 H104      -77.6006   28.9192  -76.1479 H         1 UNK         0.0837 
    105 H105      -78.1523   27.2967  -75.7482 H         1 UNK         0.0837 
    106 H106      -76.9049   25.9844  -74.1923 H         1 UNK         0.3020 
    107 H107      -74.0962   24.5629  -72.4631 H         1 UNK         0.1245 
    108 H108      -76.1617   24.0986  -70.9767 H         1 UNK         0.0781 
    109 H109      -76.8608   25.5614  -71.6041 H         1 UNK         0.0781 
    110 H110      -75.9088   27.2888  -68.3398 H         1 UNK         0.0836 
    111 H111      -77.0734   26.1341  -68.9383 H         1 UNK         0.0836 
    112 H112      -76.5639   23.4009  -73.1795 H         1 UNK         0.3022 
    113 H113      -75.7552   22.2120  -76.3966 H         1 UNK         0.0747 
    114 H114      -76.0237   19.9816  -75.3753 H         1 UNK         0.0793 
    115 H115      -74.4621   20.6504  -74.9367 H         1 UNK         0.0793 
    116 H116      -75.7705   20.6511  -73.7625 H         1 UNK         0.0793 
    117 H117      -77.9116   21.4989  -74.7971 H         1 UNK         0.3047 
    118 H118      -79.9662   22.1978  -75.6027 H         1 UNK         0.0822 
    119 H119      -79.5534   22.7506  -73.2087 H         1 UNK         0.0807 
    120 H120      -81.0972   23.4296  -73.6927 H         1 UNK         0.0807 
    121 H121      -79.6837   24.4701  -73.5459 H         1 UNK         0.0807 
    122 H122      -79.9069   25.0237  -76.3954 H         1 UNK         0.2946 
    123 H123      -81.4866   25.3988  -78.2875 H         1 UNK         0.1144 
    124 H124      -83.3415   23.8590  -78.9340 H         1 UNK         0.0793 
    125 H125      -83.8990   25.5230  -78.8649 H         1 UNK         0.0793 
    126 H126      -84.2987   24.4052  -77.5623 H         1 UNK         0.0793 
    127 H127      -83.4073   26.2232  -76.1681 H         1 UNK         0.2896 
@<TRIPOS>BOND
     1    1    2 1    
     2    1   67 1    
     3    1   68 1    
     4    1   69 1    
     5    2    3 2    
     6    2    4 am   BACKBONE|DICT|INTERRES
     7    4    5 1    
     8    4   70 1    
     9    5    6 1    
    10    5   65 1    
    11    5   71 1    
    12    6    7 1    
    13    6   72 1    
    14    6   73 1    
    15    7    8 1    
    16    8    9 1    
    17    8   74 1    
    18    8   75 1    
    19    9   10 ar   
    20    9   14 ar   
    21   10   11 ar   
    22   10   76 1    
    23   11   12 ar   
    24   11   48 1    
    25   12   13 ar   
    26   12   77 1    
    27   13   14 ar   
    28   13   15 1    
    29   14   78 1    
    30   15   16 1    
    31   15   79 1    
    32   15   80 1    
    33   16   17 1    
    34   17   18 1    
    35   17   81 1    
    36   17   82 1    
    37   18   19 1    
    38   18   22 1    
    39   18   83 1    
    40   19   20 am   BACKBONE|DICT|INTERRES
    41   19   21 2    
    42   20   84 1    
    43   20   85 1    
    44   22   23 am   BACKBONE|DICT|INTERRES
    45   22   86 1    
    46   23   24 2    
    47   23   25 1    
    48   25   26 1    
    49   25   27 1    
    50   25   87 1    
    51   26   88 1    
    52   26   89 1    
    53   26   90 1    
    54   27   28 am   BACKBONE|DICT|INTERRES
    55   27   91 1    
    56   28   29 2    
    57   28   30 1    
    58   30   31 1    
    59   30   32 1    
    60   30   92 1    
    61   31   93 1    
    62   31   94 1    
    63   31   95 1    
    64   32   33 am   BACKBONE|DICT|INTERRES
    65   32   96 1    
    66   33   34 2    
    67   33   35 1    
    68   35   36 1    
    69   35   37 1    
    70   35   97 1    
    71   36   98 1    
    72   36   99 1    
    73   36  100 1    
    74   37   38 am   BACKBONE|DICT|INTERRES
    75   37  101 1    
    76   38   39 2    
    77   38   40 1    
    78   40   41 1    
    79   40   42 1    
    80   40  102 1    
    81   41  103 1    
    82   41  104 1    
    83   41  105 1    
    84   42   43 am   BACKBONE|DICT|INTERRES
    85   42  106 1    
    86   43   44 2    
    87   43   45 1    
    88   45   46 1    
    89   45   49 1    
    90   45  107 1    
    91   46   47 1    
    92   46  108 1    
    93   46  109 1    
    94   47   48 1    
    95   48  110 1    
    96   48  111 1    
    97   49   50 am   BACKBONE|DICT|INTERRES
    98   49  112 1    
    99   50   51 2    
   100   50   52 1    
   101   52   53 1    
   102   52   54 1    
   103   52  113 1    
   104   53  114 1    
   105   53  115 1    
   106   53  116 1    
   107   54   55 am   BACKBONE|DICT|INTERRES
   108   54  117 1    
   109   55   56 2    
   110   55   57 1    
   111   57   58 1    
   112   57   59 1    
   113   57  118 1    
   114   58  119 1    
   115   58  120 1    
   116   58  121 1    
   117   59   60 am   BACKBONE|DICT|INTERRES
   118   59  122 1    
   119   60   61 2    
   120   60   62 1    
   121   62   63 1    
   122   62   64 1    
   123   62  123 1    
   124   63  124 1    
   125   63  125 1    
   126   63  126 1    
   127   64   65 am   BACKBONE|DICT|INTERRES
   128   64  127 1    
   129   65   66 2    
@<TRIPOS>SUBSTRUCTURE
     1 UNK         1 GROUP             0       ****    0 ROOT    
