@<TRIPOS>MOLECULE
3R135
127   129    1
SMALL
USER_CHARGES


@<TRIPOS>ATOM
      1 CA        -76.1393   22.9556  -73.8223 C.3       0 UNK        -0.1998 
      2 C         -77.3784   23.2364  -72.9897 C.2       0 UNK         0.4909 
      3 O         -77.7014   22.4626  -72.0883 O.2       0 UNK        -0.5240 
      4 N         -78.0925   24.3277  -73.2935 N.am      1 UNK        -0.4739 
      5 CA        -79.2988   24.7659  -72.5839 C.3       1 UNK         0.0864 
      6 C6        -79.4181   26.3104  -72.6220 C.3       11 UNK        -0.0881 
      7 S7        -80.4215   26.9791  -71.2504 S.3       11 UNK        -0.2682 
      8 C8        -79.1914   27.9182  -70.2765 C.3       11 UNK         0.0289 
      9 C9        -78.4107   28.9323  -71.1079 C.ar      11 UNK        -0.0687 
     10 C10       -79.0751   29.8265  -71.9525 C.ar      11 UNK        -0.0823 
     11 C11       -78.3555   30.6984  -72.7733 C.ar      11 UNK        -0.0830 
     12 C12       -76.9582   30.6976  -72.7235 C.ar      11 UNK        -0.1021 
     13 C13       -76.2818   29.8312  -71.8596 C.ar      11 UNK        -0.0753 
     14 C14       -77.0134   28.9513  -71.0556 C.ar      11 UNK        -0.0933 
     15 C15       -74.7611   29.8024  -71.8334 C.3       11 UNK         0.0166 
     16 S16       -74.0452   31.3451  -71.1951 S.3       11 UNK        -0.2615 
     17 C17       -72.3222   30.8264  -70.8786 C.3       11 UNK        -0.0865 
     18 CA        -71.3927   31.0015  -72.1091 C.3       10 UNK         0.0862 
     19 C         -69.8928   30.9447  -71.6937 C.2       10 UNK         0.5551 
     20 N         -69.0996   29.9966  -72.1792 N.am      10 UNK        -0.7319 
     21 O         -69.4381   31.7862  -70.9226 O.2       10 UNK        -0.5018 
     22 N         -71.7376   30.0610  -73.1893 N.am      10 UNK        -0.4509 
     23 C         -71.5734   30.2995  -74.4940 C.2       10 UNK         0.4899 
     24 O         -71.1821   31.3779  -74.9418 O.2       10 UNK        -0.4839 
     25 CA        -71.8893   29.1642  -75.4879 C.3       9 UNK         0.0222 
     26 CB        -70.5925   28.4950  -75.9829 C.3       9 UNK        -0.1966 
     27 N         -72.8619   28.1510  -75.0509 N.am      9 UNK        -0.4218 
     28 C         -72.7684   27.2344  -74.0763 C.2       9 UNK         0.5020 
     29 O         -71.8561   27.2025  -73.2501 O.2       9 UNK        -0.5274 
     30 CA        -73.8799   26.1702  -74.0141 C.3       8 UNK         0.0270 
     31 CB        -75.0624   26.6421  -73.1567 C.3       8 UNK        -0.1976 
     32 N         -74.3654   25.7931  -75.3436 N.am      8 UNK        -0.4313 
     33 C         -73.7152   24.9711  -76.1800 C.2       8 UNK         0.5041 
     34 O         -72.6631   24.3973  -75.8971 O.2       8 UNK        -0.5577 
     35 CA        -74.3433   24.7436  -77.5652 C.3       7 UNK         0.0284 
     36 CB        -75.2883   23.5341  -77.5458 C.3       7 UNK        -0.1958 
     37 N         -75.0719   25.9168  -78.0491 N.am      7 UNK        -0.4454 
     38 C         -74.4805   27.0057  -78.5582 C.2       7 UNK         0.5089 
     39 O         -73.2661   27.1141  -78.7271 O.2       7 UNK        -0.5125 
     40 CA        -75.3986   28.1846  -78.9216 C.3       6 UNK         0.0408 
     41 CB        -75.9087   28.0431  -80.3644 C.3       6 UNK        -0.1791 
     42 N         -76.5399   28.3502  -78.0157 N.am      6 UNK        -0.4762 
     43 C         -76.4509   28.6233  -76.7049 C.2       6 UNK         0.5007 
     44 O         -75.3873   28.6989  -76.0930 O.2       6 UNK        -0.5032 
     45 CA        -77.7740   28.8345  -75.9483 C.3       5 UNK         0.0783 
     46 C46       -78.2019   30.3192  -76.0721 C.3       11 UNK        -0.0857 
     47 S47       -79.7374   30.7073  -75.1670 S.3       11 UNK        -0.2512 
     48 C48       -79.0976   31.6207  -73.7268 C.3       11 UNK         0.0225 
     49 N         -78.8239   27.9163  -76.4012 N.am      5 UNK        -0.4615 
     50 C         -78.7968   26.5803  -76.3099 C.2       4 UNK         0.5053 
     51 O         -77.8607   25.9417  -75.8156 O.2       4 UNK        -0.5105 
     52 CA        -80.0637   25.8722  -76.8244 C.3       4 UNK         0.0263 
     53 CB        -80.4120   26.2695  -78.2772 C.3       4 UNK        -0.1981 
     54 N         -80.0284   24.4151  -76.6575 N.am      4 UNK        -0.4224 
     55 C         -79.3092   23.5114  -77.3422 C.2       3 UNK         0.4895 
     56 O         -78.5639   23.7973  -78.2798 O.2       3 UNK        -0.5091 
     57 CA        -79.4476   22.0332  -76.9144 C.3       3 UNK         0.0250 
     58 CB        -78.1192   21.2654  -77.0457 C.3       3 UNK        -0.1996 
     59 N         -79.9300   21.9024  -75.5375 N.am      3 UNK        -0.4254 
     60 C         -81.1978   21.6834  -75.1612 C.2       2 UNK         0.5004 
     61 O         -82.1206   21.4575  -75.9433 O.2       2 UNK        -0.5226 
     62 CA        -81.4872   21.7882  -73.6504 C.3       2 UNK         0.0269 
     63 CB        -81.4127   20.4038  -72.9875 C.3       2 UNK        -0.1926 
     64 N         -80.5685   22.7062  -72.9638 N.am      2 UNK        -0.4687 
     65 C         -80.5166   24.0291  -73.1777 C.2       1 UNK         0.5165 
     66 O         -81.3174   24.6221  -73.9024 O.2       1 UNK        -0.5079 
     67 H67       -76.1676   21.9412  -74.2186 H         1 UNK         0.0900 
     68 H68       -75.2443   23.0580  -73.2093 H         1 UNK         0.0900 
     69 H69       -76.0586   23.6480  -74.6567 H         1 UNK         0.0900 
     70 H70       -77.8340   24.8938  -74.0973 H         1 UNK         0.2959 
     71 H71       -79.2131   24.4653  -71.5367 H         1 UNK         0.1079 
     72 H72       -79.8309   26.6696  -73.5653 H         1 UNK         0.0837 
     73 H73       -78.4201   26.7459  -72.5699 H         1 UNK         0.0837 
     74 H74       -78.5146   27.2064  -69.8012 H         1 UNK         0.0685 
     75 H75       -79.7050   28.4431  -69.4702 H         1 UNK         0.0685 
     76 H76       -80.1556   29.8163  -72.0013 H         1 UNK         0.1434 
     77 H77       -76.3924   31.3650  -73.3592 H         1 UNK         0.1329 
     78 H78       -76.4929   28.2629  -70.4041 H         1 UNK         0.1335 
     79 H79       -74.4066   28.9715  -71.2231 H         1 UNK         0.0680 
     80 H80       -74.3976   29.6306  -72.8464 H         1 UNK         0.0680 
     81 H81       -72.2969   29.7973  -70.5160 H         1 UNK         0.1032 
     82 H82       -71.9690   31.4381  -70.0458 H         1 UNK         0.1032 
     83 H83       -71.5468   32.0161  -72.4818 H         1 UNK         0.0461 
     84 H84       -69.4657   29.2978  -72.8057 H         1 UNK         0.3453 
     85 H85       -68.1297   29.9746  -71.9061 H         1 UNK         0.3453 
     86 H86       -71.9644   29.1105  -72.9161 H         1 UNK         0.2984 
     87 H87       -72.3554   29.6438  -76.3503 H         1 UNK         0.0554 
     88 H88       -69.9049   29.2330  -76.3982 H         1 UNK         0.0847 
     89 H89       -70.8001   27.7685  -76.7690 H         1 UNK         0.0847 
     90 H90       -70.0673   27.9784  -75.1791 H         1 UNK         0.0847 
     91 H91       -73.7371   28.1714  -75.5730 H         1 UNK         0.3141 
     92 H92       -73.4571   25.2829  -73.5378 H         1 UNK         0.0743 
     93 H93       -74.7366   26.8688  -72.1421 H         1 UNK         0.0784 
     94 H94       -75.5358   27.5334  -73.5685 H         1 UNK         0.0784 
     95 H95       -75.8256   25.8718  -73.0749 H         1 UNK         0.0784 
     96 H96       -75.2185   26.2308  -75.6637 H         1 UNK         0.3213 
     97 H97       -73.5297   24.5239  -78.2605 H         1 UNK         0.0855 
     98 H98       -76.1779   23.7343  -76.9501 H         1 UNK         0.0814 
     99 H99       -74.7983   22.6537  -77.1276 H         1 UNK         0.0814 
    100 H100      -75.6188   23.2747  -78.5518 H         1 UNK         0.0814 
    101 H101      -76.0777   25.9113  -77.9469 H         1 UNK         0.3105 
    102 H102      -74.7986   29.0952  -78.8613 H         1 UNK         0.0547 
    103 H103      -75.0774   27.9385  -81.0632 H         1 UNK         0.0837 
    104 H104      -76.5468   27.1667  -80.4847 H         1 UNK         0.0837 
    105 H105      -76.4785   28.9197  -80.6729 H         1 UNK         0.0837 
    106 H106      -77.4600   28.2950  -78.4284 H         1 UNK         0.3020 
    107 H107      -77.5815   28.6167  -74.8950 H         1 UNK         0.1245 
    108 H108      -78.3653   30.5838  -77.1188 H         1 UNK         0.0781 
    109 H109      -77.4051   30.9782  -75.7215 H         1 UNK         0.0781 
    110 H110      -79.9345   32.0847  -73.2027 H         1 UNK         0.0836 
    111 H111      -78.4578   32.4392  -74.0605 H         1 UNK         0.0836 
    112 H112      -79.6510   28.3588  -76.7747 H         1 UNK         0.3022 
    113 H113      -80.8807   26.2114  -76.1856 H         1 UNK         0.0747 
    114 H114      -81.2600   25.6958  -78.6513 H         1 UNK         0.0793 
    115 H115      -79.5749   26.1081  -78.9573 H         1 UNK         0.0793 
    116 H116      -80.6873   27.3219  -78.3492 H         1 UNK         0.0793 
    117 H117      -80.5884   24.0782  -75.8843 H         1 UNK         0.3047 
    118 H118      -80.1649   21.5777  -77.6004 H         1 UNK         0.0822 
    119 H119      -78.2459   20.2128  -76.7923 H         1 UNK         0.0807 
    120 H120      -77.3497   21.6750  -76.3927 H         1 UNK         0.0807 
    121 H121      -77.7376   21.3043  -78.0669 H         1 UNK         0.0807 
    122 H122      -79.2543   22.0807  -74.8094 H         1 UNK         0.2946 
    123 H123      -82.5033   22.1738  -73.5375 H         1 UNK         0.1144 
    124 H124      -82.0996   19.7045  -73.4666 H         1 UNK         0.0793 
    125 H125      -81.6867   20.4537  -71.9335 H         1 UNK         0.0793 
    126 H126      -80.4115   19.9759  -73.0546 H         1 UNK         0.0793 
    127 H127      -79.8368   22.2913  -72.3968 H         1 UNK         0.2896 
@<TRIPOS>BOND
     1    1    2 1    
     2    1   67 1    
     3    1   68 1    
     4    1   69 1    
     5    2    3 2    
     6    2    4 am   BACKBONE|DICT|INTERRES
     7    4    5 1    
     8    4   70 1    
     9    5    6 1    
    10    5   65 1    
    11    5   71 1    
    12    6    7 1    
    13    6   72 1    
    14    6   73 1    
    15    7    8 1    
    16    8    9 1    
    17    8   74 1    
    18    8   75 1    
    19    9   10 ar   
    20    9   14 ar   
    21   10   11 ar   
    22   10   76 1    
    23   11   12 ar   
    24   11   48 1    
    25   12   13 ar   
    26   12   77 1    
    27   13   14 ar   
    28   13   15 1    
    29   14   78 1    
    30   15   16 1    
    31   15   79 1    
    32   15   80 1    
    33   16   17 1    
    34   17   18 1    
    35   17   81 1    
    36   17   82 1    
    37   18   19 1    
    38   18   22 1    
    39   18   83 1    
    40   19   20 am   BACKBONE|DICT|INTERRES
    41   19   21 2    
    42   20   84 1    
    43   20   85 1    
    44   22   23 am   BACKBONE|DICT|INTERRES
    45   22   86 1    
    46   23   24 2    
    47   23   25 1    
    48   25   26 1    
    49   25   27 1    
    50   25   87 1    
    51   26   88 1    
    52   26   89 1    
    53   26   90 1    
    54   27   28 am   BACKBONE|DICT|INTERRES
    55   27   91 1    
    56   28   29 2    
    57   28   30 1    
    58   30   31 1    
    59   30   32 1    
    60   30   92 1    
    61   31   93 1    
    62   31   94 1    
    63   31   95 1    
    64   32   33 am   BACKBONE|DICT|INTERRES
    65   32   96 1    
    66   33   34 2    
    67   33   35 1    
    68   35   36 1    
    69   35   37 1    
    70   35   97 1    
    71   36   98 1    
    72   36   99 1    
    73   36  100 1    
    74   37   38 am   BACKBONE|DICT|INTERRES
    75   37  101 1    
    76   38   39 2    
    77   38   40 1    
    78   40   41 1    
    79   40   42 1    
    80   40  102 1    
    81   41  103 1    
    82   41  104 1    
    83   41  105 1    
    84   42   43 am   BACKBONE|DICT|INTERRES
    85   42  106 1    
    86   43   44 2    
    87   43   45 1    
    88   45   46 1    
    89   45   49 1    
    90   45  107 1    
    91   46   47 1    
    92   46  108 1    
    93   46  109 1    
    94   47   48 1    
    95   48  110 1    
    96   48  111 1    
    97   49   50 am   BACKBONE|DICT|INTERRES
    98   49  112 1    
    99   50   51 2    
   100   50   52 1    
   101   52   53 1    
   102   52   54 1    
   103   52  113 1    
   104   53  114 1    
   105   53  115 1    
   106   53  116 1    
   107   54   55 am   BACKBONE|DICT|INTERRES
   108   54  117 1    
   109   55   56 2    
   110   55   57 1    
   111   57   58 1    
   112   57   59 1    
   113   57  118 1    
   114   58  119 1    
   115   58  120 1    
   116   58  121 1    
   117   59   60 am   BACKBONE|DICT|INTERRES
   118   59  122 1    
   119   60   61 2    
   120   60   62 1    
   121   62   63 1    
   122   62   64 1    
   123   62  123 1    
   124   63  124 1    
   125   63  125 1    
   126   63  126 1    
   127   64   65 am   BACKBONE|DICT|INTERRES
   128   64  127 1    
   129   65   66 2    
@<TRIPOS>SUBSTRUCTURE
     1 UNK         1 GROUP             0       ****    0 ROOT    
