@<TRIPOS>MOLECULE
3R135
127   129    1
SMALL
USER_CHARGES


@<TRIPOS>ATOM
      1 CA        -81.8375   30.2331  -73.0355 C.3       0 UNK        -0.1998 
      2 C         -80.8544   29.2661  -73.6768 C.2       0 UNK         0.4909 
      3 O         -80.6062   28.1958  -73.1217 O.2       0 UNK        -0.5240 
      4 N         -80.3006   29.6375  -74.8403 N.am      1 UNK        -0.4739 
      5 CA        -79.3156   28.9085  -75.6603 C.3       1 UNK         0.0864 
      6 C6        -77.9887   28.5825  -74.9262 C.3       11 UNK        -0.0881 
      7 S7        -77.1084   30.0926  -74.3890 S.3       11 UNK        -0.2682 
      8 C8        -77.3184   30.0453  -72.5799 C.3       11 UNK         0.0289 
      9 C9        -76.6019   28.8606  -71.9494 C.ar      11 UNK        -0.0687 
     10 C10       -77.3299   27.7932  -71.4186 C.ar      11 UNK        -0.0823 
     11 C11       -76.6695   26.6852  -70.8796 C.ar      11 UNK        -0.0830 
     12 C12       -75.2712   26.6795  -70.8188 C.ar      11 UNK        -0.1021 
     13 C13       -74.5288   27.7479  -71.3328 C.ar      11 UNK        -0.0753 
     14 C14       -75.2065   28.8239  -71.9136 C.ar      11 UNK        -0.0933 
     15 C15       -73.0022   27.6929  -71.3109 C.3       11 UNK         0.0166 
     16 S16       -72.2148   29.2018  -70.6456 S.3       11 UNK        -0.2615 
     17 C17       -71.9791   30.2260  -72.1446 C.3       11 UNK        -0.0865 
     18 CA        -72.7600   31.5750  -72.0889 C.3       10 UNK         0.0862 
     19 C         -71.9732   32.7319  -71.3956 C.2       10 UNK         0.5551 
     20 N         -72.2128   33.9887  -71.7511 N.am      10 UNK        -0.7319 
     21 O         -71.1556   32.4994  -70.5086 O.2       10 UNK        -0.5018 
     22 N         -73.3592   31.9193  -73.3923 N.am      10 UNK        -0.4509 
     23 C         -72.6870   32.2315  -74.5087 C.2       10 UNK         0.4899 
     24 O         -71.4582   32.2759  -74.5878 O.2       10 UNK        -0.4839 
     25 CA        -73.5604   32.5302  -75.7407 C.3       9 UNK         0.0222 
     26 CB        -72.7988   33.2740  -76.8594 C.3       9 UNK        -0.1966 
     27 N         -74.2089   31.3136  -76.2467 N.am      9 UNK        -0.4218 
     28 C         -73.6184   30.2259  -76.7656 C.2       9 UNK         0.5020 
     29 O         -72.4082   30.1155  -76.9792 O.2       9 UNK        -0.5274 
     30 CA        -74.5659   29.0779  -77.1600 C.3       8 UNK         0.0270 
     31 CB        -75.0473   29.2439  -78.6105 C.3       8 UNK        -0.1976 
     32 N         -73.9560   27.7559  -77.0064 N.am      8 UNK        -0.4313 
     33 C         -73.5198   27.2356  -75.8532 C.2       8 UNK         0.5041 
     34 O         -73.6334   27.7966  -74.7637 O.2       8 UNK        -0.5577 
     35 CA        -72.8809   25.8369  -75.9356 C.3       7 UNK         0.0284 
     36 CB        -72.0519   25.4986  -74.6823 C.3       7 UNK        -0.1958 
     37 N         -73.8963   24.8003  -76.1161 N.am      7 UNK        -0.4454 
     38 C         -74.5867   24.5485  -77.2334 C.2       7 UNK         0.5089 
     39 O         -74.3996   25.1483  -78.2933 O.2       7 UNK        -0.5125 
     40 CA        -75.6752   23.4589  -77.1690 C.3       6 UNK         0.0408 
     41 CB        -75.0914   22.0770  -77.5174 C.3       6 UNK        -0.1791 
     42 N         -76.4462   23.4163  -75.9162 N.am      6 UNK        -0.4762 
     43 C         -76.0441   23.0921  -74.6763 C.2       6 UNK         0.5007 
     44 O         -74.8876   22.7869  -74.3845 O.2       6 UNK        -0.5032 
     45 CA        -77.1148   23.1445  -73.5734 C.3       5 UNK         0.0783 
     46 C46       -77.3580   24.6106  -73.1470 C.3       11 UNK        -0.0857 
     47 S47       -78.5152   24.7688  -71.7419 S.3       11 UNK        -0.2512 
     48 C48       -77.4597   25.4648  -70.4202 C.3       11 UNK         0.0225 
     49 N         -78.3346   22.4831  -74.0388 N.am      5 UNK        -0.4615 
     50 C         -78.5580   21.1645  -73.9613 C.2       4 UNK         0.5053 
     51 O         -77.8037   20.3746  -73.3930 O.2       4 UNK        -0.5105 
     52 CA        -79.8341   20.6279  -74.6369 C.3       4 UNK         0.0263 
     53 CB        -80.9996   20.5996  -73.6350 C.3       4 UNK        -0.1981 
     54 N         -80.2264   21.4089  -75.8120 N.am      4 UNK        -0.4224 
     55 C         -79.5410   21.4573  -76.9641 C.2       3 UNK         0.4895 
     56 O         -78.5724   20.7407  -77.2145 O.2       3 UNK        -0.5091 
     57 CA        -79.9929   22.4996  -78.0058 C.3       3 UNK         0.0250 
     58 CB        -80.8384   21.8320  -79.1023 C.3       3 UNK        -0.1996 
     59 N         -80.7402   23.6310  -77.4392 N.am      3 UNK        -0.4254 
     60 C         -80.2444   24.5158  -76.5628 C.2       2 UNK         0.5004 
     61 O         -79.0945   24.4658  -76.1200 O.2       2 UNK        -0.5226 
     62 CA        -81.2301   25.5672  -76.0285 C.3       2 UNK         0.0269 
     63 CB        -82.0286   24.9859  -74.8496 C.3       2 UNK        -0.1926 
     64 N         -80.5685   26.7914  -75.5766 N.am      2 UNK        -0.4687 
     65 C         -79.9046   27.6585  -76.3495 C.2       1 UNK         0.5165 
     66 O         -79.7816   27.5274  -77.5684 O.2       1 UNK        -0.5079 
     67 H67       -82.8131   29.7596  -72.9292 H         1 UNK         0.0900 
     68 H68       -81.9625   31.1408  -73.6255 H         1 UNK         0.0900 
     69 H69       -81.4873   30.5187  -72.0440 H         1 UNK         0.0900 
     70 H70       -80.5801   30.5258  -75.2332 H         1 UNK         0.2959 
     71 H71       -79.0652   29.5927  -76.4732 H         1 UNK         0.1079 
     72 H72       -77.3165   28.0301  -75.5851 H         1 UNK         0.0837 
     73 H73       -78.1663   27.9214  -74.0781 H         1 UNK         0.0837 
     74 H74       -76.9208   30.9684  -72.1563 H         1 UNK         0.0685 
     75 H75       -78.3808   30.0327  -72.3360 H         1 UNK         0.0685 
     76 H76       -78.4108   27.7994  -71.4701 H         1 UNK         0.1434 
     77 H77       -74.7574   25.8237  -70.4025 H         1 UNK         0.1329 
     78 H78       -74.6507   29.6272  -72.3665 H         1 UNK         0.1335 
     79 H79       -72.6718   26.8569  -70.6928 H         1 UNK         0.0680 
     80 H80       -72.6299   27.4840  -72.3134 H         1 UNK         0.0680 
     81 H81       -72.2961   29.6436  -73.0115 H         1 UNK         0.1032 
     82 H82       -70.9120   30.3965  -72.2987 H         1 UNK         0.1032 
     83 H83       -73.6236   31.4327  -71.4388 H         1 UNK         0.0461 
     84 H84       -71.7100   34.7350  -71.2971 H         1 UNK         0.3453 
     85 H85       -72.8862   34.1972  -72.4705 H         1 UNK         0.3453 
     86 H86       -74.3685   31.9242  -73.4220 H         1 UNK         0.2984 
     87 H87       -74.3632   33.1901  -75.4077 H         1 UNK         0.0554 
     88 H88       -73.4533   33.5039  -77.6999 H         1 UNK         0.0847 
     89 H89       -71.9560   32.6965  -77.2401 H         1 UNK         0.0847 
     90 H90       -72.3987   34.2196  -76.4914 H         1 UNK         0.0847 
     91 H91       -75.2107   31.2763  -76.1127 H         1 UNK         0.3141 
     92 H92       -75.4340   29.1068  -76.5036 H         1 UNK         0.0743 
     93 H93       -75.5405   30.2065  -78.7525 H         1 UNK         0.0784 
     94 H94       -74.2177   29.1953  -79.3171 H         1 UNK         0.0784 
     95 H95       -75.7664   28.4702  -78.8814 H         1 UNK         0.0784 
     96 H96       -73.8767   27.1835  -77.8386 H         1 UNK         0.3213 
     97 H97       -72.2085   25.8260  -76.7962 H         1 UNK         0.0855 
     98 H98       -71.2949   26.2620  -74.4971 H         1 UNK         0.0814 
     99 H99       -71.5326   24.5469  -74.7953 H         1 UNK         0.0814 
    100 H100      -72.6770   25.4347  -73.7905 H         1 UNK         0.0814 
    101 H101      -74.1156   24.2252  -75.3074 H         1 UNK         0.3105 
    102 H102      -76.4046   23.7070  -77.9418 H         1 UNK         0.0547 
    103 H103      -74.6175   22.0924  -78.4997 H         1 UNK         0.0837 
    104 H104      -74.3353   21.7585  -76.7994 H         1 UNK         0.0837 
    105 H105      -75.8693   21.3142  -77.5455 H         1 UNK         0.0837 
    106 H106      -77.4120   23.7283  -76.0128 H         1 UNK         0.3020 
    107 H107      -76.7203   22.6036  -72.7097 H         1 UNK         0.1245 
    108 H108      -76.4053   25.0786  -72.8985 H         1 UNK         0.0781 
    109 H109      -77.7632   25.1979  -73.9725 H         1 UNK         0.0781 
    110 H110      -76.7901   24.6811  -70.0625 H         1 UNK         0.0836 
    111 H111      -78.0880   25.7434  -69.5733 H         1 UNK         0.0836 
    112 H112      -78.9756   23.0655  -74.5620 H         1 UNK         0.3022 
    113 H113      -79.6330   19.6043  -74.9608 H         1 UNK         0.0747 
    114 H114      -81.8934   20.1589  -74.0770 H         1 UNK         0.0793 
    115 H115      -80.7450   20.0014  -72.7588 H         1 UNK         0.0793 
    116 H116      -81.2554   21.5999  -73.2827 H         1 UNK         0.0793 
    117 H117      -81.0291   22.0117  -75.7110 H         1 UNK         0.3047 
    118 H118      -79.0883   22.9014  -78.4677 H         1 UNK         0.0822 
    119 H119      -81.0858   22.5355  -79.8976 H         1 UNK         0.0807 
    120 H120      -81.7714   21.4297  -78.7054 H         1 UNK         0.0807 
    121 H121      -80.2970   21.0042  -79.5631 H         1 UNK         0.0807 
    122 H122      -81.6995   23.7292  -77.7408 H         1 UNK         0.2946 
    123 H123      -81.9194   25.8374  -76.8316 H         1 UNK         0.1144 
    124 H124      -82.7573   25.7043  -74.4731 H         1 UNK         0.0793 
    125 H125      -81.3757   24.7092  -74.0199 H         1 UNK         0.0793 
    126 H126      -82.5815   24.0933  -75.1447 H         1 UNK         0.0793 
    127 H127      -80.6139   27.0062  -74.5834 H         1 UNK         0.2896 
@<TRIPOS>BOND
     1    1    2 1    
     2    1   67 1    
     3    1   68 1    
     4    1   69 1    
     5    2    3 2    
     6    2    4 am   BACKBONE|DICT|INTERRES
     7    4    5 1    
     8    4   70 1    
     9    5    6 1    
    10    5   65 1    
    11    5   71 1    
    12    6    7 1    
    13    6   72 1    
    14    6   73 1    
    15    7    8 1    
    16    8    9 1    
    17    8   74 1    
    18    8   75 1    
    19    9   10 ar   
    20    9   14 ar   
    21   10   11 ar   
    22   10   76 1    
    23   11   12 ar   
    24   11   48 1    
    25   12   13 ar   
    26   12   77 1    
    27   13   14 ar   
    28   13   15 1    
    29   14   78 1    
    30   15   16 1    
    31   15   79 1    
    32   15   80 1    
    33   16   17 1    
    34   17   18 1    
    35   17   81 1    
    36   17   82 1    
    37   18   19 1    
    38   18   22 1    
    39   18   83 1    
    40   19   20 am   BACKBONE|DICT|INTERRES
    41   19   21 2    
    42   20   84 1    
    43   20   85 1    
    44   22   23 am   BACKBONE|DICT|INTERRES
    45   22   86 1    
    46   23   24 2    
    47   23   25 1    
    48   25   26 1    
    49   25   27 1    
    50   25   87 1    
    51   26   88 1    
    52   26   89 1    
    53   26   90 1    
    54   27   28 am   BACKBONE|DICT|INTERRES
    55   27   91 1    
    56   28   29 2    
    57   28   30 1    
    58   30   31 1    
    59   30   32 1    
    60   30   92 1    
    61   31   93 1    
    62   31   94 1    
    63   31   95 1    
    64   32   33 am   BACKBONE|DICT|INTERRES
    65   32   96 1    
    66   33   34 2    
    67   33   35 1    
    68   35   36 1    
    69   35   37 1    
    70   35   97 1    
    71   36   98 1    
    72   36   99 1    
    73   36  100 1    
    74   37   38 am   BACKBONE|DICT|INTERRES
    75   37  101 1    
    76   38   39 2    
    77   38   40 1    
    78   40   41 1    
    79   40   42 1    
    80   40  102 1    
    81   41  103 1    
    82   41  104 1    
    83   41  105 1    
    84   42   43 am   BACKBONE|DICT|INTERRES
    85   42  106 1    
    86   43   44 2    
    87   43   45 1    
    88   45   46 1    
    89   45   49 1    
    90   45  107 1    
    91   46   47 1    
    92   46  108 1    
    93   46  109 1    
    94   47   48 1    
    95   48  110 1    
    96   48  111 1    
    97   49   50 am   BACKBONE|DICT|INTERRES
    98   49  112 1    
    99   50   51 2    
   100   50   52 1    
   101   52   53 1    
   102   52   54 1    
   103   52  113 1    
   104   53  114 1    
   105   53  115 1    
   106   53  116 1    
   107   54   55 am   BACKBONE|DICT|INTERRES
   108   54  117 1    
   109   55   56 2    
   110   55   57 1    
   111   57   58 1    
   112   57   59 1    
   113   57  118 1    
   114   58  119 1    
   115   58  120 1    
   116   58  121 1    
   117   59   60 am   BACKBONE|DICT|INTERRES
   118   59  122 1    
   119   60   61 2    
   120   60   62 1    
   121   62   63 1    
   122   62   64 1    
   123   62  123 1    
   124   63  124 1    
   125   63  125 1    
   126   63  126 1    
   127   64   65 am   BACKBONE|DICT|INTERRES
   128   64  127 1    
   129   65   66 2    
@<TRIPOS>SUBSTRUCTURE
     1 UNK         1 GROUP             0       ****    0 ROOT    
