@<TRIPOS>MOLECULE
3R135
127   129    1
SMALL
USER_CHARGES


@<TRIPOS>ATOM
      1 CA        -85.6053   28.4378  -73.3141 C.3       0 UNK        -0.1998 
      2 C         -84.4371   28.7061  -74.2507 C.2       0 UNK         0.4909 
      3 O         -84.6157   29.3549  -75.2817 O.2       0 UNK        -0.5240 
      4 N         -83.2427   28.2060  -73.9041 N.am      1 UNK        -0.4739 
      5 CA        -82.0065   28.3688  -74.6866 C.3       1 UNK         0.0864 
      6 C6        -80.7439   28.2572  -73.7837 C.3       11 UNK        -0.0881 
      7 S7        -79.5503   29.5947  -74.1260 S.3       11 UNK        -0.2682 
      8 C8        -78.8808   29.9316  -72.4673 C.3       11 UNK         0.0289 
      9 C9        -77.7846   28.9427  -72.1028 C.ar      11 UNK        -0.0687 
     10 C10       -78.0896   27.7499  -71.4380 C.ar      11 UNK        -0.0823 
     11 C11       -77.0768   26.8414  -71.1111 C.ar      11 UNK        -0.0830 
     12 C12       -75.7533   27.1429  -71.4395 C.ar      11 UNK        -0.1021 
     13 C13       -75.4420   28.3179  -72.1268 C.ar      11 UNK        -0.0753 
     14 C14       -76.4588   29.2199  -72.4476 C.ar      11 UNK        -0.0933 
     15 C15       -74.0214   28.5556  -72.6036 C.3       11 UNK         0.0166 
     16 S16       -72.9865   29.3986  -71.3686 S.3       11 UNK        -0.2615 
     17 C17       -73.1785   31.1537  -71.8436 C.3       11 UNK        -0.0865 
     18 CA        -72.1148   31.6510  -72.8619 C.3       10 UNK         0.0862 
     19 C         -70.6800   31.7187  -72.2569 C.2       10 UNK         0.5551 
     20 N         -69.6877   31.0225  -72.8020 N.am      10 UNK        -0.7319 
     21 O         -70.4619   32.4329  -71.2812 O.2       10 UNK        -0.5018 
     22 N         -72.2095   30.9098  -74.1258 N.am      10 UNK        -0.4509 
     23 C         -71.8319   31.3570  -75.3269 C.2       10 UNK         0.4899 
     24 O         -71.4230   32.5006  -75.5333 O.2       10 UNK        -0.4839 
     25 CA        -71.9439   30.3521  -76.4919 C.3       9 UNK         0.0222 
     26 CB        -70.9830   30.6862  -77.6524 C.3       9 UNK        -0.1966 
     27 N         -71.7996   28.9409  -76.0982 N.am      9 UNK        -0.4218 
     28 C         -70.7348   28.3653  -75.5109 C.2       9 UNK         0.5020 
     29 O         -69.7636   29.0026  -75.0996 O.2       9 UNK        -0.5274 
     30 CA        -70.7358   26.8300  -75.3386 C.3       8 UNK         0.0270 
     31 CB        -70.6874   26.4323  -73.8540 C.3       8 UNK        -0.1976 
     32 N         -71.8664   26.1571  -75.9877 N.am      8 UNK        -0.4313 
     33 C         -71.9763   25.9716  -77.3130 C.2       8 UNK         0.5041 
     34 O         -71.0859   26.2601  -78.1133 O.2       8 UNK        -0.5577 
     35 CA        -73.3038   25.4038  -77.8548 C.3       7 UNK         0.0284 
     36 CB        -73.1433   23.9176  -78.2113 C.3       7 UNK        -0.1958 
     37 N         -74.4491   25.5612  -76.9521 N.am      7 UNK        -0.4454 
     38 C         -74.9306   26.7278  -76.4941 C.2       7 UNK         0.5089 
     39 O         -74.4681   27.8245  -76.8113 O.2       7 UNK        -0.5125 
     40 CA        -76.0769   26.6686  -75.4668 C.3       6 UNK         0.0408 
     41 CB        -77.4177   26.9999  -76.1372 C.3       6 UNK        -0.1791 
     42 N         -76.1922   25.3909  -74.7545 N.am      6 UNK        -0.4762 
     43 C         -75.2367   24.8311  -73.9922 C.2       6 UNK         0.5007 
     44 O         -74.1209   25.3268  -73.8267 O.2       6 UNK        -0.5032 
     45 CA        -75.5386   23.4506  -73.3696 C.3       5 UNK         0.0783 
     46 C46       -75.9591   23.5538  -71.8803 C.3       11 UNK        -0.0857 
     47 S47       -77.6602   24.1733  -71.6066 S.3       11 UNK        -0.2512 
     48 C48       -77.4126   25.5310  -70.4147 C.3       11 UNK         0.0225 
     49 N         -76.4846   22.6525  -74.1567 N.am      5 UNK        -0.4615 
     50 C         -76.3048   22.2649  -75.4268 C.2       4 UNK         0.5053 
     51 O         -75.2752   22.4838  -76.0649 O.2       4 UNK        -0.5105 
     52 CA        -77.4748   21.5430  -76.1198 C.3       4 UNK         0.0263 
     53 CB        -77.2188   20.0277  -76.1558 C.3       4 UNK        -0.1981 
     54 N         -78.7977   21.7942  -75.5321 N.am      4 UNK        -0.4224 
     55 C         -79.3916   22.9918  -75.4299 C.2       3 UNK         0.4895 
     56 O         -78.8506   24.0582  -75.7301 O.2       3 UNK        -0.5091 
     57 CA        -80.8128   22.9909  -74.8431 C.3       3 UNK         0.0250 
     58 CB        -80.7642   23.1276  -73.3131 C.3       3 UNK        -0.1996 
     59 N         -81.6351   24.0728  -75.3841 N.am      3 UNK        -0.4254 
     60 C         -82.0619   24.1681  -76.6514 C.2       2 UNK         0.5004 
     61 O         -81.8464   23.3131  -77.5118 O.2       2 UNK        -0.5226 
     62 CA        -82.8985   25.4081  -77.0194 C.3       2 UNK         0.0269 
     63 CB        -84.3655   25.0147  -77.2632 C.3       2 UNK        -0.1926 
     64 N         -82.8576   26.4481  -75.9861 N.am      2 UNK        -0.4687 
     65 C         -81.9264   27.4095  -75.8990 C.2       1 UNK         0.5165 
     66 O         -81.0225   27.5468  -76.7236 O.2       1 UNK        -0.5079 
     67 H67       -86.3888   27.8910  -73.8381 H         1 UNK         0.0900 
     68 H68       -85.3062   27.8524  -72.4448 H         1 UNK         0.0900 
     69 H69       -86.0252   29.3789  -72.9600 H         1 UNK         0.0900 
     70 H70       -83.1571   27.6817  -73.0445 H         1 UNK         0.2959 
     71 H71       -82.0398   29.3734  -75.1155 H         1 UNK         0.1079 
     72 H72       -81.0254   28.3218  -72.7319 H         1 UNK         0.0837 
     73 H73       -80.2383   27.2941  -73.8847 H         1 UNK         0.0837 
     74 H74       -78.4774   30.9453  -72.4561 H         1 UNK         0.0685 
     75 H75       -79.6775   29.9195  -71.7222 H         1 UNK         0.0685 
     76 H76       -79.1162   27.5235  -71.1854 H         1 UNK         0.1434 
     77 H77       -74.9641   26.4445  -71.2000 H         1 UNK         0.1329 
     78 H78       -76.2247   30.1248  -72.9910 H         1 UNK         0.1335 
     79 H79       -73.5613   27.5962  -72.8254 H         1 UNK         0.0680 
     80 H80       -74.0372   29.0987  -73.5476 H         1 UNK         0.0680 
     81 H81       -74.1796   31.3101  -72.2468 H         1 UNK         0.1032 
     82 H82       -73.1404   31.7579  -70.9353 H         1 UNK         0.1032 
     83 H83       -72.3717   32.6881  -73.0864 H         1 UNK         0.0461 
     84 H84       -68.7660   31.0845  -72.4003 H         1 UNK         0.3453 
     85 H85       -69.8454   30.4284  -73.6081 H         1 UNK         0.3453 
     86 H86       -72.4830   29.9434  -74.0446 H         1 UNK         0.2984 
     87 H87       -72.9619   30.4502  -76.8717 H         1 UNK         0.0554 
     88 H88       -71.1802   31.6810  -78.0537 H         1 UNK         0.0847 
     89 H89       -71.0943   29.9799  -78.4753 H         1 UNK         0.0847 
     90 H90       -69.9408   30.6656  -77.3317 H         1 UNK         0.0847 
     91 H91       -72.5794   28.3469  -76.3665 H         1 UNK         0.3141 
     92 H92       -69.8164   26.4676  -75.8033 H         1 UNK         0.0743 
     93 H93       -71.5772   26.7523  -73.3166 H         1 UNK         0.0784 
     94 H94       -70.5985   25.3522  -73.7366 H         1 UNK         0.0784 
     95 H95       -69.8280   26.8821  -73.3548 H         1 UNK         0.0784 
     96 H96       -72.6378   25.8783  -75.3906 H         1 UNK         0.3213 
     97 H97       -73.5360   25.9525  -78.7699 H         1 UNK         0.0855 
     98 H98       -72.9165   23.3152  -77.3306 H         1 UNK         0.0814 
     99 H99       -72.3307   23.7714  -78.9244 H         1 UNK         0.0814 
    100 H100      -74.0490   23.5165  -78.6666 H         1 UNK         0.0814 
    101 H101      -74.8754   24.7070  -76.6133 H         1 UNK         0.3105 
    102 H102      -75.8774   27.4378  -74.7215 H         1 UNK         0.0547 
    103 H103      -77.3876   27.9819  -76.6110 H         1 UNK         0.0837 
    104 H104      -77.6765   26.2719  -76.9068 H         1 UNK         0.0837 
    105 H105      -78.2303   27.0192  -75.4110 H         1 UNK         0.0837 
    106 H106      -77.0697   24.8937  -74.8687 H         1 UNK         0.3020 
    107 H107      -74.5894   22.9102  -73.3967 H         1 UNK         0.1245 
    108 H108      -75.2410   24.1554  -71.3219 H         1 UNK         0.0781 
    109 H109      -75.9059   22.5620  -71.4288 H         1 UNK         0.0781 
    110 H110      -76.6337   25.2664  -69.6979 H         1 UNK         0.0836 
    111 H111      -78.3267   25.6490  -69.8309 H         1 UNK         0.0836 
    112 H112      -77.3683   22.4529  -73.7119 H         1 UNK         0.3022 
    113 H113      -77.5050   21.9082  -77.1485 H         1 UNK         0.0747 
    114 H114      -77.9789   19.5091  -76.7404 H         1 UNK         0.0793 
    115 H115      -76.2542   19.8049  -76.6147 H         1 UNK         0.0793 
    116 H116      -77.2101   19.5959  -75.1541 H         1 UNK         0.0793 
    117 H117      -79.3118   20.9773  -75.2340 H         1 UNK         0.3047 
    118 H118      -81.2949   22.0442  -75.0970 H         1 UNK         0.0822 
    119 H119      -81.7599   23.0512  -72.8757 H         1 UNK         0.0807 
    120 H120      -80.3381   24.0847  -73.0095 H         1 UNK         0.0807 
    121 H121      -80.1548   22.3421  -72.8640 H         1 UNK         0.0807 
    122 H122      -81.8408   24.8382  -74.7614 H         1 UNK         0.2946 
    123 H123      -82.4912   25.8067  -77.9517 H         1 UNK         0.1144 
    124 H124      -84.9600   25.8744  -77.5733 H         1 UNK         0.0793 
    125 H125      -84.8256   24.5922  -76.3690 H         1 UNK         0.0793 
    126 H126      -84.4438   24.2673  -78.0541 H         1 UNK         0.0793 
    127 H127      -83.5794   26.4218  -75.2803 H         1 UNK         0.2896 
@<TRIPOS>BOND
     1    1    2 1    
     2    1   67 1    
     3    1   68 1    
     4    1   69 1    
     5    2    3 2    
     6    2    4 am   BACKBONE|DICT|INTERRES
     7    4    5 1    
     8    4   70 1    
     9    5    6 1    
    10    5   65 1    
    11    5   71 1    
    12    6    7 1    
    13    6   72 1    
    14    6   73 1    
    15    7    8 1    
    16    8    9 1    
    17    8   74 1    
    18    8   75 1    
    19    9   10 ar   
    20    9   14 ar   
    21   10   11 ar   
    22   10   76 1    
    23   11   12 ar   
    24   11   48 1    
    25   12   13 ar   
    26   12   77 1    
    27   13   14 ar   
    28   13   15 1    
    29   14   78 1    
    30   15   16 1    
    31   15   79 1    
    32   15   80 1    
    33   16   17 1    
    34   17   18 1    
    35   17   81 1    
    36   17   82 1    
    37   18   19 1    
    38   18   22 1    
    39   18   83 1    
    40   19   20 am   BACKBONE|DICT|INTERRES
    41   19   21 2    
    42   20   84 1    
    43   20   85 1    
    44   22   23 am   BACKBONE|DICT|INTERRES
    45   22   86 1    
    46   23   24 2    
    47   23   25 1    
    48   25   26 1    
    49   25   27 1    
    50   25   87 1    
    51   26   88 1    
    52   26   89 1    
    53   26   90 1    
    54   27   28 am   BACKBONE|DICT|INTERRES
    55   27   91 1    
    56   28   29 2    
    57   28   30 1    
    58   30   31 1    
    59   30   32 1    
    60   30   92 1    
    61   31   93 1    
    62   31   94 1    
    63   31   95 1    
    64   32   33 am   BACKBONE|DICT|INTERRES
    65   32   96 1    
    66   33   34 2    
    67   33   35 1    
    68   35   36 1    
    69   35   37 1    
    70   35   97 1    
    71   36   98 1    
    72   36   99 1    
    73   36  100 1    
    74   37   38 am   BACKBONE|DICT|INTERRES
    75   37  101 1    
    76   38   39 2    
    77   38   40 1    
    78   40   41 1    
    79   40   42 1    
    80   40  102 1    
    81   41  103 1    
    82   41  104 1    
    83   41  105 1    
    84   42   43 am   BACKBONE|DICT|INTERRES
    85   42  106 1    
    86   43   44 2    
    87   43   45 1    
    88   45   46 1    
    89   45   49 1    
    90   45  107 1    
    91   46   47 1    
    92   46  108 1    
    93   46  109 1    
    94   47   48 1    
    95   48  110 1    
    96   48  111 1    
    97   49   50 am   BACKBONE|DICT|INTERRES
    98   49  112 1    
    99   50   51 2    
   100   50   52 1    
   101   52   53 1    
   102   52   54 1    
   103   52  113 1    
   104   53  114 1    
   105   53  115 1    
   106   53  116 1    
   107   54   55 am   BACKBONE|DICT|INTERRES
   108   54  117 1    
   109   55   56 2    
   110   55   57 1    
   111   57   58 1    
   112   57   59 1    
   113   57  118 1    
   114   58  119 1    
   115   58  120 1    
   116   58  121 1    
   117   59   60 am   BACKBONE|DICT|INTERRES
   118   59  122 1    
   119   60   61 2    
   120   60   62 1    
   121   62   63 1    
   122   62   64 1    
   123   62  123 1    
   124   63  124 1    
   125   63  125 1    
   126   63  126 1    
   127   64   65 am   BACKBONE|DICT|INTERRES
   128   64  127 1    
   129   65   66 2    
@<TRIPOS>SUBSTRUCTURE
     1 UNK         1 GROUP             0       ****    0 ROOT    
