@<TRIPOS>MOLECULE
3R135
127   129    1
SMALL
USER_CHARGES


@<TRIPOS>ATOM
      1 CA        -81.1902   24.6100  -72.7512 C.3       0 UNK        -0.1998 
      2 C         -80.5633   25.5998  -73.7210 C.2       0 UNK         0.4909 
      3 O         -79.3412   25.6474  -73.8469 O.2       0 UNK        -0.5240 
      4 N         -81.3954   26.3978  -74.4013 N.am      1 UNK        -0.4739 
      5 CA        -80.9968   27.5031  -75.2855 C.3       1 UNK         0.0864 
      6 C6        -80.2797   28.6614  -74.5398 C.3       11 UNK        -0.0881 
      7 S7        -81.2425   29.3115  -73.1376 S.3       11 UNK        -0.2682 
      8 C8        -80.1483   30.6582  -72.5767 C.3       11 UNK         0.0289 
      9 C9        -78.8324   30.1911  -71.9547 C.ar      11 UNK        -0.0687 
     10 C10       -78.7809   29.0847  -71.0977 C.ar      11 UNK        -0.0823 
     11 C11       -77.5848   28.7255  -70.4699 C.ar      11 UNK        -0.0830 
     12 C12       -76.4359   29.4882  -70.6954 C.ar      11 UNK        -0.1021 
     13 C13       -76.4601   30.5863  -71.5640 C.ar      11 UNK        -0.0753 
     14 C14       -77.6649   30.9262  -72.1883 C.ar      11 UNK        -0.0933 
     15 C15       -75.2296   31.4640  -71.8074 C.3       11 UNK         0.0166 
     16 S16       -73.6179   30.6565  -71.5080 S.3       11 UNK        -0.2615 
     17 C17       -73.6122   29.4129  -72.8382 C.3       11 UNK        -0.0865 
     18 CA        -72.1957   28.8789  -73.1644 C.3       10 UNK         0.0862 
     19 C         -71.7149   27.8265  -72.1280 C.2       10 UNK         0.5551 
     20 N         -72.1329   26.5712  -72.2391 N.am      10 UNK        -0.7319 
     21 O         -70.9409   28.1463  -71.2291 O.2       10 UNK        -0.5018 
     22 N         -72.1489   28.3879  -74.5441 N.am      10 UNK        -0.4509 
     23 C         -71.0394   28.1496  -75.2518 C.2       10 UNK         0.4899 
     24 O         -69.8984   28.3642  -74.8419 O.2       10 UNK        -0.4839 
     25 CA        -71.2397   27.5940  -76.6693 C.3       9 UNK         0.0222 
     26 CB        -71.4432   26.0709  -76.6153 C.3       9 UNK        -0.1966 
     27 N         -72.3937   28.2156  -77.3264 N.am      9 UNK        -0.4218 
     28 C         -72.3232   29.2086  -78.2245 C.2       9 UNK         0.5020 
     29 O         -71.2640   29.6974  -78.6210 O.2       9 UNK        -0.5274 
     30 CA        -73.6470   29.7447  -78.8068 C.3       8 UNK         0.0270 
     31 CB        -73.9405   29.0801  -80.1621 C.3       8 UNK        -0.1976 
     32 N         -74.8014   29.5589  -77.9247 N.am      8 UNK        -0.4313 
     33 C         -75.0292   30.2610  -76.8065 C.2       8 UNK         0.5041 
     34 O         -74.3231   31.1972  -76.4312 O.2       8 UNK        -0.5577 
     35 CA        -76.2338   29.8347  -75.9426 C.3       7 UNK         0.0284 
     36 CB        -77.4583   30.7057  -76.2619 C.3       7 UNK        -0.1958 
     37 N         -76.5975   28.4102  -76.0226 N.am      7 UNK        -0.4454 
     38 C         -75.7632   27.3901  -75.7798 C.2       7 UNK         0.5089 
     39 O         -74.5605   27.5403  -75.5696 O.2       7 UNK        -0.5125 
     40 CA        -76.3530   25.9726  -75.8124 C.3       6 UNK         0.0408 
     41 CB        -75.4695   25.0061  -76.6248 C.3       6 UNK        -0.1791 
     42 N         -76.6067   25.4464  -74.4687 N.am      6 UNK        -0.4762 
     43 C         -75.7334   25.2252  -73.4705 C.2       6 UNK         0.5007 
     44 O         -74.5240   25.4522  -73.5260 O.2       6 UNK        -0.5032 
     45 CA        -76.3124   24.5429  -72.2187 C.3       5 UNK         0.0783 
     46 C46       -77.2396   25.4754  -71.3923 C.3       11 UNK        -0.0857 
     47 S47       -76.3460   26.2694  -70.0192 S.3       11 UNK        -0.2512 
     48 C48       -77.5394   27.5469  -69.5056 C.3       11 UNK         0.0225 
     49 N         -76.9685   23.2960  -72.6268 N.am      5 UNK        -0.4615 
     50 C         -76.3307   22.1238  -72.7453 C.2       4 UNK         0.5053 
     51 O         -75.1691   21.9367  -72.3823 O.2       4 UNK        -0.5105 
     52 CA        -77.0913   20.9617  -73.4059 C.3       4 UNK         0.0263 
     53 CB        -78.2756   20.4771  -72.5430 C.3       4 UNK        -0.1981 
     54 N         -77.4802   21.2476  -74.7946 N.am      4 UNK        -0.4224 
     55 C         -78.4108   22.1087  -75.2246 C.2       3 UNK         0.4895 
     56 O         -79.1403   22.7605  -74.4789 O.2       3 UNK        -0.5091 
     57 CA        -78.5626   22.2543  -76.7409 C.3       3 UNK         0.0250 
     58 CB        -79.3486   21.0661  -77.3281 C.3       3 UNK        -0.1996 
     59 N         -79.2587   23.5063  -77.0370 N.am      3 UNK        -0.4254 
     60 C         -79.2070   24.1547  -78.2063 C.2       2 UNK         0.5004 
     61 O         -78.5022   23.7918  -79.1490 O.2       2 UNK        -0.5226 
     62 CA        -80.0975   25.3954  -78.3901 C.3       2 UNK         0.0269 
     63 CB        -81.2673   25.0651  -79.3337 C.3       2 UNK        -0.1926 
     64 N         -80.6485   25.9225  -77.1363 N.am      2 UNK        -0.4687 
     65 C         -80.1993   27.0247  -76.5206 C.2       1 UNK         0.5165 
     66 O         -79.2103   27.6580  -76.8982 O.2       1 UNK        -0.5079 
     67 H67       -80.5581   24.4934  -71.8716 H         1 UNK         0.0900 
     68 H68       -81.2991   23.6346  -73.2238 H         1 UNK         0.0900 
     69 H69       -82.1729   24.9427  -72.4181 H         1 UNK         0.0900 
     70 H70       -82.3910   26.3025  -74.2566 H         1 UNK         0.2959 
     71 H71       -81.9250   27.9109  -75.6890 H         1 UNK         0.1079 
     72 H72       -80.1133   29.4907  -75.2273 H         1 UNK         0.0837 
     73 H73       -79.2979   28.3464  -74.1802 H         1 UNK         0.0837 
     74 H74       -79.9596   31.3244  -73.4201 H         1 UNK         0.0685 
     75 H75       -80.6847   31.2492  -71.8334 H         1 UNK         0.0685 
     76 H76       -79.6793   28.5161  -70.9014 H         1 UNK         0.1434 
     77 H77       -75.5246   29.2183  -70.1809 H         1 UNK         0.1329 
     78 H78       -77.7002   31.7902  -72.8380 H         1 UNK         0.1335 
     79 H79       -75.2404   31.8449  -72.8301 H         1 UNK         0.0680 
     80 H80       -75.2998   32.3350  -71.1548 H         1 UNK         0.0680 
     81 H81       -74.0200   29.9004  -73.7233 H         1 UNK         0.1032 
     82 H82       -74.3029   28.6010  -72.5990 H         1 UNK         0.1032 
     83 H83       -71.5022   29.7212  -73.1172 H         1 UNK         0.0461 
     84 H84       -71.8106   25.8880  -71.5736 H         1 UNK         0.3453 
     85 H85       -72.8261   26.3057  -72.9318 H         1 UNK         0.3453 
     86 H86       -73.0451   28.1068  -74.9397 H         1 UNK         0.2984 
     87 H87       -70.3307   27.7903  -77.2416 H         1 UNK         0.0554 
     88 H88       -71.5865   25.6526  -77.6116 H         1 UNK         0.0847 
     89 H89       -72.3076   25.7995  -76.0084 H         1 UNK         0.0847 
     90 H90       -70.5738   25.5783  -76.1779 H         1 UNK         0.0847 
     91 H91       -73.3066   27.9281  -76.9877 H         1 UNK         0.3141 
     92 H92       -73.5180   30.8161  -78.9755 H         1 UNK         0.0743 
     93 H93       -73.1119   29.2279  -80.8564 H         1 UNK         0.0784 
     94 H94       -74.0923   28.0046  -80.0613 H         1 UNK         0.0784 
     95 H95       -74.8299   29.5042  -80.6286 H         1 UNK         0.0784 
     96 H96       -75.4460   28.8181  -78.1594 H         1 UNK         0.3213 
     97 H97       -75.9600   30.0308  -74.9053 H         1 UNK         0.0855 
     98 H98       -77.1861   31.7596  -76.3377 H         1 UNK         0.0814 
     99 H99       -78.2024   30.6331  -75.4715 H         1 UNK         0.0814 
    100 H100      -77.9275   30.4193  -77.2039 H         1 UNK         0.0814 
    101 H101      -77.5666   28.1965  -76.2546 H         1 UNK         0.3105 
    102 H102      -77.3207   26.0140  -76.3095 H         1 UNK         0.0547 
    103 H103      -75.3090   25.3805  -77.6364 H         1 UNK         0.0837 
    104 H104      -74.4891   24.8668  -76.1702 H         1 UNK         0.0837 
    105 H105      -75.9353   24.0259  -76.7124 H         1 UNK         0.0837 
    106 H106      -77.5952   25.3097  -74.2543 H         1 UNK         0.3020 
    107 H107      -75.4587   24.2774  -71.5902 H         1 UNK         0.1245 
    108 H108      -78.0626   24.9079  -70.9553 H         1 UNK         0.0781 
    109 H109      -77.7027   26.2504  -72.0046 H         1 UNK         0.0781 
    110 H110      -77.2543   27.9145  -68.5190 H         1 UNK         0.0836 
    111 H111      -78.5248   27.0928  -69.3892 H         1 UNK         0.0836 
    112 H112      -77.8994   23.3695  -73.0272 H         1 UNK         0.3022 
    113 H113      -76.3893   20.1286  -73.4711 H         1 UNK         0.0747 
    114 H114      -78.7781   19.6268  -73.0039 H         1 UNK         0.0793 
    115 H115      -77.9291   20.1549  -71.5604 H         1 UNK         0.0793 
    116 H116      -79.0202   21.2562  -72.3790 H         1 UNK         0.0793 
    117 H117      -76.9297   20.7667  -75.4931 H         1 UNK         0.3047 
    118 H118      -77.5644   22.2850  -77.1821 H         1 UNK         0.0822 
    119 H119      -79.4344   21.1412  -78.4123 H         1 UNK         0.0807 
    120 H120      -80.3573   21.0109  -76.9165 H         1 UNK         0.0807 
    121 H121      -78.8550   20.1181  -77.1112 H         1 UNK         0.0807 
    122 H122      -79.7876   23.8884  -76.2627 H         1 UNK         0.2946 
    123 H123      -79.4804   26.1537  -78.8780 H         1 UNK         0.1144 
    124 H124      -81.8740   25.9479  -79.5365 H         1 UNK         0.0793 
    125 H125      -81.9197   24.2971  -78.9164 H         1 UNK         0.0793 
    126 H126      -80.9046   24.6973  -80.2948 H         1 UNK         0.0793 
    127 H127      -81.4542   25.4490  -76.7523 H         1 UNK         0.2896 
@<TRIPOS>BOND
     1    1    2 1    
     2    1   67 1    
     3    1   68 1    
     4    1   69 1    
     5    2    3 2    
     6    2    4 am   BACKBONE|DICT|INTERRES
     7    4    5 1    
     8    4   70 1    
     9    5    6 1    
    10    5   65 1    
    11    5   71 1    
    12    6    7 1    
    13    6   72 1    
    14    6   73 1    
    15    7    8 1    
    16    8    9 1    
    17    8   74 1    
    18    8   75 1    
    19    9   10 ar   
    20    9   14 ar   
    21   10   11 ar   
    22   10   76 1    
    23   11   12 ar   
    24   11   48 1    
    25   12   13 ar   
    26   12   77 1    
    27   13   14 ar   
    28   13   15 1    
    29   14   78 1    
    30   15   16 1    
    31   15   79 1    
    32   15   80 1    
    33   16   17 1    
    34   17   18 1    
    35   17   81 1    
    36   17   82 1    
    37   18   19 1    
    38   18   22 1    
    39   18   83 1    
    40   19   20 am   BACKBONE|DICT|INTERRES
    41   19   21 2    
    42   20   84 1    
    43   20   85 1    
    44   22   23 am   BACKBONE|DICT|INTERRES
    45   22   86 1    
    46   23   24 2    
    47   23   25 1    
    48   25   26 1    
    49   25   27 1    
    50   25   87 1    
    51   26   88 1    
    52   26   89 1    
    53   26   90 1    
    54   27   28 am   BACKBONE|DICT|INTERRES
    55   27   91 1    
    56   28   29 2    
    57   28   30 1    
    58   30   31 1    
    59   30   32 1    
    60   30   92 1    
    61   31   93 1    
    62   31   94 1    
    63   31   95 1    
    64   32   33 am   BACKBONE|DICT|INTERRES
    65   32   96 1    
    66   33   34 2    
    67   33   35 1    
    68   35   36 1    
    69   35   37 1    
    70   35   97 1    
    71   36   98 1    
    72   36   99 1    
    73   36  100 1    
    74   37   38 am   BACKBONE|DICT|INTERRES
    75   37  101 1    
    76   38   39 2    
    77   38   40 1    
    78   40   41 1    
    79   40   42 1    
    80   40  102 1    
    81   41  103 1    
    82   41  104 1    
    83   41  105 1    
    84   42   43 am   BACKBONE|DICT|INTERRES
    85   42  106 1    
    86   43   44 2    
    87   43   45 1    
    88   45   46 1    
    89   45   49 1    
    90   45  107 1    
    91   46   47 1    
    92   46  108 1    
    93   46  109 1    
    94   47   48 1    
    95   48  110 1    
    96   48  111 1    
    97   49   50 am   BACKBONE|DICT|INTERRES
    98   49  112 1    
    99   50   51 2    
   100   50   52 1    
   101   52   53 1    
   102   52   54 1    
   103   52  113 1    
   104   53  114 1    
   105   53  115 1    
   106   53  116 1    
   107   54   55 am   BACKBONE|DICT|INTERRES
   108   54  117 1    
   109   55   56 2    
   110   55   57 1    
   111   57   58 1    
   112   57   59 1    
   113   57  118 1    
   114   58  119 1    
   115   58  120 1    
   116   58  121 1    
   117   59   60 am   BACKBONE|DICT|INTERRES
   118   59  122 1    
   119   60   61 2    
   120   60   62 1    
   121   62   63 1    
   122   62   64 1    
   123   62  123 1    
   124   63  124 1    
   125   63  125 1    
   126   63  126 1    
   127   64   65 am   BACKBONE|DICT|INTERRES
   128   64  127 1    
   129   65   66 2    
@<TRIPOS>SUBSTRUCTURE
     1 UNK         1 GROUP             0       ****    0 ROOT    
