@<TRIPOS>MOLECULE
3R135
127   129    1
SMALL
USER_CHARGES


@<TRIPOS>ATOM
      1 CA        -79.0350   27.1687  -70.5931 C.3       0 UNK        -0.1998 
      2 C         -80.2603   27.7153  -71.3080 C.2       0 UNK         0.4909 
      3 O         -81.2945   27.9322  -70.6761 O.2       0 UNK        -0.5240 
      4 N         -80.1537   27.9338  -72.6244 N.am      1 UNK        -0.4739 
      5 CA        -81.2393   28.4093  -73.4922 C.3       1 UNK         0.0864 
      6 C6        -80.7031   28.9760  -74.8317 C.3       11 UNK        -0.0881 
      7 S7        -79.5946   27.8344  -75.7375 S.3       11 UNK        -0.2682 
      8 C8        -78.0215   28.7511  -75.7109 C.3       11 UNK         0.0289 
      9 C9        -77.3659   28.7406  -74.3366 C.ar      11 UNK        -0.0687 
     10 C10       -76.5964   27.6466  -73.9317 C.ar      11 UNK        -0.0823 
     11 C11       -75.9489   27.6487  -72.6910 C.ar      11 UNK        -0.0830 
     12 C12       -76.1097   28.7425  -71.8353 C.ar      11 UNK        -0.1021 
     13 C13       -76.8898   29.8362  -72.2228 C.ar      11 UNK        -0.0753 
     14 C14       -77.5031   29.8353  -73.4786 C.ar      11 UNK        -0.0933 
     15 C15       -77.0874   31.0175  -71.2852 C.3       11 UNK         0.0166 
     16 S16       -75.9974   32.4141  -71.7058 S.3       11 UNK        -0.2615 
     17 C17       -74.3840   31.8439  -71.0666 C.3       11 UNK        -0.0865 
     18 CA        -73.3097   31.6769  -72.1738 C.3       10 UNK         0.0862 
     19 C         -71.9200   31.3527  -71.5451 C.2       10 UNK         0.5551 
     20 N         -71.2943   30.2159  -71.8283 N.am      10 UNK        -0.7319 
     21 O         -71.3956   32.1591  -70.7806 O.2       10 UNK        -0.5018 
     22 N         -73.7452   30.7426  -73.2233 N.am      10 UNK        -0.4509 
     23 C         -73.1929   30.6476  -74.4367 C.2       10 UNK         0.4899 
     24 O         -72.3134   31.3987  -74.8639 O.2       10 UNK        -0.4839 
     25 CA        -73.7028   29.4987  -75.3197 C.3       9 UNK         0.0222 
     26 CB        -74.4972   30.0414  -76.5184 C.3       9 UNK        -0.1966 
     27 N         -72.6171   28.6325  -75.7860 N.am      9 UNK        -0.4218 
     28 C         -71.7576   27.9758  -74.9902 C.2       9 UNK         0.5020 
     29 O         -71.7923   28.0215  -73.7578 O.2       9 UNK        -0.5274 
     30 CA        -70.7106   27.1012  -75.6988 C.3       8 UNK         0.0270 
     31 CB        -69.8767   26.2470  -74.7247 C.3       8 UNK        -0.1976 
     32 N         -71.3956   26.2258  -76.6450 N.am      8 UNK        -0.4313 
     33 C         -71.0331   26.0021  -77.9149 C.2       8 UNK         0.5041 
     34 O         -70.0088   26.4597  -78.4234 O.2       8 UNK        -0.5577 
     35 CA        -71.9734   25.1344  -78.7790 C.3       7 UNK         0.0284 
     36 CB        -71.4383   23.6965  -78.8760 C.3       7 UNK        -0.1958 
     37 N         -73.3550   25.1003  -78.2883 N.am      7 UNK        -0.4454 
     38 C         -74.1713   26.1611  -78.2240 C.2       7 UNK         0.5089 
     39 O         -73.8970   27.2591  -78.7083 O.2       7 UNK        -0.5125 
     40 CA        -75.4861   25.9981  -77.4380 C.3       6 UNK         0.0408 
     41 CB        -76.6925   25.9479  -78.3870 C.3       6 UNK        -0.1791 
     42 N         -75.5447   24.8531  -76.5187 N.am      6 UNK        -0.4762 
     43 C         -74.7371   24.6454  -75.4664 C.2       6 UNK         0.5007 
     44 O         -73.7418   25.3364  -75.2524 O.2       6 UNK        -0.5032 
     45 CA        -75.0263   23.4440  -74.5342 C.3       5 UNK         0.0783 
     46 C46       -74.7919   23.7512  -73.0217 C.3       11 UNK        -0.0857 
     47 S47       -75.9513   24.9128  -72.2138 S.3       11 UNK        -0.2512 
     48 C48       -75.0430   26.4901  -72.2957 C.3       11 UNK         0.0225 
     49 N         -76.2528   22.6807  -74.8297 N.am      5 UNK        -0.4615 
     50 C         -77.5253   23.1008  -74.8484 C.2       4 UNK         0.5053 
     51 O         -77.8872   24.2535  -74.6099 O.2       4 UNK        -0.5105 
     52 CA        -78.5719   22.0349  -75.2218 C.3       4 UNK         0.0263 
     53 CB        -78.9704   21.2175  -73.9822 C.3       4 UNK        -0.1981 
     54 N         -79.7750   22.6395  -75.7919 N.am      4 UNK        -0.4224 
     55 C         -79.8381   23.3400  -76.9307 C.2       3 UNK         0.4895 
     56 O         -78.9168   23.3947  -77.7467 O.2       3 UNK        -0.5091 
     57 CA        -81.1243   24.1482  -77.1951 C.3       3 UNK         0.0250 
     58 CB        -82.1224   23.3460  -78.0528 C.3       3 UNK        -0.1996 
     59 N         -81.7608   24.7012  -75.9852 N.am      3 UNK        -0.4254 
     60 C         -82.3736   24.0553  -74.9797 C.2       2 UNK         0.5004 
     61 O         -82.5121   22.8319  -74.9434 O.2       2 UNK        -0.5226 
     62 CA        -82.8518   24.9076  -73.7911 C.3       2 UNK         0.0269 
     63 CB        -82.9025   24.1011  -72.4792 C.3       2 UNK        -0.1926 
     64 N         -81.9752   26.0637  -73.5940 N.am      2 UNK        -0.4687 
     65 C         -82.3331   27.3464  -73.7337 C.2       1 UNK         0.5165 
     66 O         -83.4676   27.7081  -74.0494 O.2       1 UNK        -0.5079 
     67 H67       -79.3225   26.3853  -69.8925 H         1 UNK         0.0900 
     68 H68       -78.5387   27.9626  -70.0361 H         1 UNK         0.0900 
     69 H69       -78.3194   26.7420  -71.2951 H         1 UNK         0.0900 
     70 H70       -79.2730   27.7624  -73.0932 H         1 UNK         0.2959 
     71 H71       -81.7350   29.2303  -72.9690 H         1 UNK         0.1079 
     72 H72       -81.5275   29.2509  -75.4929 H         1 UNK         0.0837 
     73 H73       -80.1797   29.9121  -74.6380 H         1 UNK         0.0837 
     74 H74       -78.1880   29.7744  -76.0511 H         1 UNK         0.0685 
     75 H75       -77.3477   28.3036  -76.4402 H         1 UNK         0.0685 
     76 H76       -76.4894   26.7955  -74.5891 H         1 UNK         0.1434 
     77 H77       -75.6258   28.7438  -70.8681 H         1 UNK         0.1329 
     78 H78       -78.0915   30.6898  -73.7829 H         1 UNK         0.1335 
     79 H79       -76.9285   30.7220  -70.2469 H         1 UNK         0.0680 
     80 H80       -78.1236   31.3538  -71.3458 H         1 UNK         0.0680 
     81 H81       -74.0554   32.5811  -70.3313 H         1 UNK         0.1032 
     82 H82       -74.5067   30.9122  -70.5126 H         1 UNK         0.1032 
     83 H83       -73.1911   32.6512  -72.6521 H         1 UNK         0.0461 
     84 H84       -71.6864   29.5405  -72.4769 H         1 UNK         0.3453 
     85 H85       -70.3975   30.0348  -71.4074 H         1 UNK         0.3453 
     86 H86       -74.4787   30.0973  -72.9645 H         1 UNK         0.2984 
     87 H87       -74.3667   28.8720  -74.7275 H         1 UNK         0.0554 
     88 H88       -74.9314   29.2368  -77.1101 H         1 UNK         0.0847 
     89 H89       -73.8710   30.6432  -77.1781 H         1 UNK         0.0847 
     90 H90       -75.3207   30.6736  -76.1832 H         1 UNK         0.0847 
     91 H91       -72.5178   28.5312  -76.7864 H         1 UNK         0.3141 
     92 H92       -70.0389   27.7813  -76.2267 H         1 UNK         0.0743 
     93 H93       -70.5060   25.5642  -74.1521 H         1 UNK         0.0784 
     94 H94       -69.1336   25.6528  -75.2564 H         1 UNK         0.0784 
     95 H95       -69.3409   26.8759  -74.0126 H         1 UNK         0.0784 
     96 H96       -72.2691   25.8299  -76.2989 H         1 UNK         0.3213 
     97 H97       -71.9851   25.5669  -79.7819 H         1 UNK         0.0855 
     98 H98       -71.4160   23.2068  -77.9016 H         1 UNK         0.0814 
     99 H99       -70.4204   23.6857  -79.2686 H         1 UNK         0.0814 
    100 H100      -72.0475   23.0892  -79.5457 H         1 UNK         0.0814 
    101 H101      -73.6712   24.2395  -77.8668 H         1 UNK         0.3105 
    102 H102      -75.5771   26.8936  -76.8233 H         1 UNK         0.0547 
    103 H103      -76.6952   26.8016  -79.0661 H         1 UNK         0.0837 
    104 H104      -76.6887   25.0436  -78.9967 H         1 UNK         0.0837 
    105 H105      -77.6320   25.9746  -77.8339 H         1 UNK         0.0837 
    106 H106      -76.3429   24.2414  -76.6220 H         1 UNK         0.3020 
    107 H107      -74.2316   22.7457  -74.8027 H         1 UNK         0.1245 
    108 H108      -73.7711   24.1036  -72.8615 H         1 UNK         0.0781 
    109 H109      -74.8505   22.8149  -72.4651 H         1 UNK         0.0781 
    110 H110      -74.2247   26.4355  -73.0125 H         1 UNK         0.0836 
    111 H111      -74.5768   26.6712  -71.3262 H         1 UNK         0.0836 
    112 H112      -76.0887   21.7095  -75.0562 H         1 UNK         0.3022 
    113 H113      -78.1443   21.3656  -75.9711 H         1 UNK         0.0747 
    114 H114      -79.6944   20.4421  -74.2337 H         1 UNK         0.0793 
    115 H115      -78.1046   20.7209  -73.5423 H         1 UNK         0.0793 
    116 H116      -79.4110   21.8494  -73.2095 H         1 UNK         0.0793 
    117 H117      -80.6124   22.6273  -75.2189 H         1 UNK         0.3047 
    118 H118      -80.8183   25.0175  -77.7799 H         1 UNK         0.0822 
    119 H119      -83.0062   23.9378  -78.2910 H         1 UNK         0.0807 
    120 H120      -82.4523   22.4343  -77.5540 H         1 UNK         0.0807 
    121 H121      -81.6672   23.0481  -78.9983 H         1 UNK         0.0807 
    122 H122      -81.6538   25.7006  -75.8757 H         1 UNK         0.2946 
    123 H123      -83.8676   25.2299  -74.0309 H         1 UNK         0.1144 
    124 H124      -83.2371   24.7210  -71.6471 H         1 UNK         0.0793 
    125 H125      -81.9254   23.6916  -72.2197 H         1 UNK         0.0793 
    126 H126      -83.5989   23.2650  -72.5568 H         1 UNK         0.0793 
    127 H127      -81.0113   25.8667  -73.3610 H         1 UNK         0.2896 
@<TRIPOS>BOND
     1    1    2 1    
     2    1   67 1    
     3    1   68 1    
     4    1   69 1    
     5    2    3 2    
     6    2    4 am   BACKBONE|DICT|INTERRES
     7    4    5 1    
     8    4   70 1    
     9    5    6 1    
    10    5   65 1    
    11    5   71 1    
    12    6    7 1    
    13    6   72 1    
    14    6   73 1    
    15    7    8 1    
    16    8    9 1    
    17    8   74 1    
    18    8   75 1    
    19    9   10 ar   
    20    9   14 ar   
    21   10   11 ar   
    22   10   76 1    
    23   11   12 ar   
    24   11   48 1    
    25   12   13 ar   
    26   12   77 1    
    27   13   14 ar   
    28   13   15 1    
    29   14   78 1    
    30   15   16 1    
    31   15   79 1    
    32   15   80 1    
    33   16   17 1    
    34   17   18 1    
    35   17   81 1    
    36   17   82 1    
    37   18   19 1    
    38   18   22 1    
    39   18   83 1    
    40   19   20 am   BACKBONE|DICT|INTERRES
    41   19   21 2    
    42   20   84 1    
    43   20   85 1    
    44   22   23 am   BACKBONE|DICT|INTERRES
    45   22   86 1    
    46   23   24 2    
    47   23   25 1    
    48   25   26 1    
    49   25   27 1    
    50   25   87 1    
    51   26   88 1    
    52   26   89 1    
    53   26   90 1    
    54   27   28 am   BACKBONE|DICT|INTERRES
    55   27   91 1    
    56   28   29 2    
    57   28   30 1    
    58   30   31 1    
    59   30   32 1    
    60   30   92 1    
    61   31   93 1    
    62   31   94 1    
    63   31   95 1    
    64   32   33 am   BACKBONE|DICT|INTERRES
    65   32   96 1    
    66   33   34 2    
    67   33   35 1    
    68   35   36 1    
    69   35   37 1    
    70   35   97 1    
    71   36   98 1    
    72   36   99 1    
    73   36  100 1    
    74   37   38 am   BACKBONE|DICT|INTERRES
    75   37  101 1    
    76   38   39 2    
    77   38   40 1    
    78   40   41 1    
    79   40   42 1    
    80   40  102 1    
    81   41  103 1    
    82   41  104 1    
    83   41  105 1    
    84   42   43 am   BACKBONE|DICT|INTERRES
    85   42  106 1    
    86   43   44 2    
    87   43   45 1    
    88   45   46 1    
    89   45   49 1    
    90   45  107 1    
    91   46   47 1    
    92   46  108 1    
    93   46  109 1    
    94   47   48 1    
    95   48  110 1    
    96   48  111 1    
    97   49   50 am   BACKBONE|DICT|INTERRES
    98   49  112 1    
    99   50   51 2    
   100   50   52 1    
   101   52   53 1    
   102   52   54 1    
   103   52  113 1    
   104   53  114 1    
   105   53  115 1    
   106   53  116 1    
   107   54   55 am   BACKBONE|DICT|INTERRES
   108   54  117 1    
   109   55   56 2    
   110   55   57 1    
   111   57   58 1    
   112   57   59 1    
   113   57  118 1    
   114   58  119 1    
   115   58  120 1    
   116   58  121 1    
   117   59   60 am   BACKBONE|DICT|INTERRES
   118   59  122 1    
   119   60   61 2    
   120   60   62 1    
   121   62   63 1    
   122   62   64 1    
   123   62  123 1    
   124   63  124 1    
   125   63  125 1    
   126   63  126 1    
   127   64   65 am   BACKBONE|DICT|INTERRES
   128   64  127 1    
   129   65   66 2    
@<TRIPOS>SUBSTRUCTURE
     1 UNK         1 GROUP             0       ****    0 ROOT    
