@<TRIPOS>MOLECULE
3R135
127   129    1
SMALL
USER_CHARGES


@<TRIPOS>ATOM
      1 CA        -76.2507   25.9600  -70.0514 C.3       0 UNK        -0.1998 
      2 C         -77.5658   25.4349  -70.6070 C.2       0 UNK         0.4909 
      3 O         -77.6212   24.2992  -71.0802 O.2       0 UNK        -0.5240 
      4 N         -78.6298   26.2451  -70.5390 N.am      1 UNK        -0.4739 
      5 CA        -79.9731   25.9234  -71.0386 C.3       1 UNK         0.0864 
      6 C6        -81.0989   26.8683  -70.4971 C.3       11 UNK        -0.0881 
      7 S7        -80.6007   28.1309  -69.2612 S.3       11 UNK        -0.2682 
      8 C8        -80.9148   29.7006  -70.1368 C.3       11 UNK         0.0289 
      9 C9        -80.0126   29.8663  -71.3506 C.ar      11 UNK        -0.0687 
     10 C10       -80.4933   29.5661  -72.6272 C.ar      11 UNK        -0.0823 
     11 C11       -79.6588   29.6458  -73.7445 C.ar      11 UNK        -0.0830 
     12 C12       -78.3308   30.0617  -73.5736 C.ar      11 UNK        -0.1021 
     13 C13       -77.8404   30.3857  -72.3028 C.ar      11 UNK        -0.0753 
     14 C14       -78.6916   30.2944  -71.1967 C.ar      11 UNK        -0.0933 
     15 C15       -76.3882   30.8119  -72.1170 C.3       11 UNK         0.0166 
     16 S16       -75.4708   29.6261  -71.0809 S.3       11 UNK        -0.2615 
     17 C17       -73.7731   30.2980  -71.1315 C.3       11 UNK        -0.0865 
     18 CA        -72.6967   29.3136  -71.6745 C.3       10 UNK         0.0862 
     19 C         -72.4696   28.0386  -70.8111 C.2       10 UNK         0.5551 
     20 N         -72.0235   26.9295  -71.3928 N.am      10 UNK        -0.7319 
     21 O         -72.6721   28.0543  -69.5997 O.2       10 UNK        -0.5018 
     22 N         -72.8682   29.0011  -73.1012 N.am      10 UNK        -0.4509 
     23 C         -72.2902   29.6615  -74.1087 C.2       10 UNK         0.4899 
     24 O         -71.6579   30.7079  -73.9541 O.2       10 UNK        -0.4839 
     25 CA        -72.4325   29.0647  -75.5279 C.3       9 UNK         0.0222 
     26 CB        -71.2426   29.4454  -76.4333 C.3       9 UNK        -0.1966 
     27 N         -72.6611   27.6116  -75.6102 N.am      9 UNK        -0.4218 
     28 C         -71.9228   26.6237  -75.0784 C.2       9 UNK         0.5020 
     29 O         -71.0177   26.8144  -74.2649 O.2       9 UNK        -0.5274 
     30 CA        -72.2298   25.1692  -75.4983 C.3       8 UNK         0.0270 
     31 CB        -72.7563   24.3293  -74.3180 C.3       8 UNK        -0.1976 
     32 N         -73.1002   24.9969  -76.6748 N.am      8 UNK        -0.4313 
     33 C         -72.6966   25.2518  -77.9295 C.2       8 UNK         0.5041 
     34 O         -71.6476   25.8416  -78.1919 O.2       8 UNK        -0.5577 
     35 CA        -73.5312   24.7056  -79.0992 C.3       7 UNK         0.0284 
     36 CB        -73.1107   23.2526  -79.4018 C.3       7 UNK        -0.1958 
     37 N         -74.9860   24.7870  -78.9235 N.am      7 UNK        -0.4454 
     38 C         -75.8492   24.7491  -79.9525 C.2       7 UNK         0.5089 
     39 O         -75.5022   24.6915  -81.1334 O.2       7 UNK        -0.5125 
     40 CA        -77.3547   24.7753  -79.6312 C.3       6 UNK         0.0408 
     41 CB        -77.8285   23.4031  -79.1289 C.3       6 UNK        -0.1791 
     42 N         -77.7102   25.8185  -78.6698 N.am      6 UNK        -0.4762 
     43 C         -77.6490   27.1348  -78.9293 C.2       6 UNK         0.5007 
     44 O         -77.3879   27.5990  -80.0399 O.2       6 UNK        -0.5032 
     45 CA        -77.8786   28.1023  -77.7508 C.3       5 UNK         0.0783 
     46 C46       -79.3305   28.6333  -77.7152 C.3       11 UNK        -0.0857 
     47 S47       -79.4961   30.0218  -76.5409 S.3       11 UNK        -0.2512 
     48 C48       -80.2005   29.1708  -75.0915 C.3       11 UNK         0.0225 
     49 N         -77.4608   27.5039  -76.4780 N.am      5 UNK        -0.4615 
     50 C         -76.1798   27.3060  -76.1513 C.2       4 UNK         0.5053 
     51 O         -75.2290   27.6405  -76.8569 O.2       4 UNK        -0.5105 
     52 CA        -75.9011   26.5594  -74.8461 C.3       4 UNK         0.0263 
     53 CB        -75.9642   27.4882  -73.6353 C.3       4 UNK        -0.1981 
     54 N         -76.7641   25.3963  -74.6595 N.am      4 UNK        -0.4224 
     55 C         -76.6373   24.2670  -75.3716 C.2       3 UNK         0.4895 
     56 O         -75.7575   24.0994  -76.2192 O.2       3 UNK        -0.5091 
     57 CA        -77.6570   23.1416  -75.1235 C.3       3 UNK         0.0250 
     58 CB        -77.0903   22.1265  -74.1196 C.3       3 UNK        -0.1996 
     59 N         -78.9615   23.6143  -74.6557 N.am      3 UNK        -0.4254 
     60 C         -79.7839   24.4212  -75.3426 C.2       2 UNK         0.5004 
     61 O         -79.5457   24.8404  -76.4761 O.2       2 UNK        -0.5226 
     62 CA        -81.0564   24.8926  -74.6117 C.3       2 UNK         0.0269 
     63 CB        -82.2234   23.9339  -74.8939 C.3       2 UNK        -0.1926 
     64 N         -80.8965   25.0571  -73.1572 N.am      2 UNK        -0.4687 
     65 C         -79.9780   25.8475  -72.5816 C.2       1 UNK         0.5165 
     66 O         -79.1562   26.4932  -73.2333 O.2       1 UNK        -0.5079 
     67 H67       -76.3029   27.0247  -69.8261 H         1 UNK         0.0900 
     68 H68       -75.4449   25.8035  -70.7675 H         1 UNK         0.0900 
     69 H69       -75.9947   25.4309  -69.1342 H         1 UNK         0.0900 
     70 H70       -78.5334   27.1795  -70.1661 H         1 UNK         0.2959 
     71 H71       -80.1927   24.9153  -70.6791 H         1 UNK         0.1079 
     72 H72       -81.6370   27.3679  -71.3034 H         1 UNK         0.0837 
     73 H73       -81.8622   26.2539  -70.0170 H         1 UNK         0.0837 
     74 H74       -81.9659   29.7510  -70.4254 H         1 UNK         0.0685 
     75 H75       -80.7496   30.5284  -69.4457 H         1 UNK         0.0685 
     76 H76       -81.5128   29.2271  -72.7469 H         1 UNK         0.1434 
     77 H77       -77.6655   30.1008  -74.4245 H         1 UNK         0.1329 
     78 H78       -78.3138   30.5252  -70.2100 H         1 UNK         0.1335 
     79 H79       -75.8871   30.9042  -73.0819 H         1 UNK         0.0680 
     80 H80       -76.3584   31.7979  -71.6513 H         1 UNK         0.0680 
     81 H81       -73.5092   30.6129  -70.1205 H         1 UNK         0.1032 
     82 H82       -73.7596   31.2114  -71.7278 H         1 UNK         0.1032 
     83 H83       -71.7430   29.8344  -71.5699 H         1 UNK         0.0461 
     84 H84       -71.8669   26.1123  -70.8251 H         1 UNK         0.3453 
     85 H85       -71.7261   26.9347  -72.3619 H         1 UNK         0.3453 
     86 H86       -73.3591   28.1428  -73.2986 H         1 UNK         0.2984 
     87 H87       -73.3254   29.5272  -75.9506 H         1 UNK         0.0554 
     88 H88       -71.3717   29.0541  -77.4427 H         1 UNK         0.0847 
     89 H89       -70.3020   29.0558  -76.0421 H         1 UNK         0.0847 
     90 H90       -71.1382   30.5277  -76.5202 H         1 UNK         0.0847 
     91 H91       -73.4198   27.3510  -76.2350 H         1 UNK         0.3141 
     92 H92       -71.2613   24.7411  -75.7667 H         1 UNK         0.0743 
     93 H93       -73.7180   24.6708  -73.9415 H         1 UNK         0.0784 
     94 H94       -72.8657   23.2818  -74.5993 H         1 UNK         0.0784 
     95 H95       -72.0589   24.3608  -73.4798 H         1 UNK         0.0784 
     96 H96       -73.9862   24.5191  -76.5224 H         1 UNK         0.3213 
     97 H97       -73.2653   25.3197  -79.9629 H         1 UNK         0.0855 
     98 H98       -73.4199   22.5729  -78.6068 H         1 UNK         0.0814 
     99 H99       -72.0274   23.1689  -79.5007 H         1 UNK         0.0814 
    100 H100      -73.5432   22.8936  -80.3355 H         1 UNK         0.0814 
    101 H101      -75.3455   24.8092  -77.9739 H         1 UNK         0.3105 
    102 H102      -77.8914   24.9879  -80.5585 H         1 UNK         0.0547 
    103 H103      -77.6897   22.6425  -79.8982 H         1 UNK         0.0837 
    104 H104      -77.2690   23.0775  -78.2537 H         1 UNK         0.0837 
    105 H105      -78.8874   23.4139  -78.8702 H         1 UNK         0.0837 
    106 H106      -78.0209   25.5157  -77.7529 H         1 UNK         0.3020 
    107 H107      -77.2249   28.9577  -77.9406 H         1 UNK         0.1245 
    108 H108      -80.0374   27.8365  -77.4759 H         1 UNK         0.0781 
    109 H109      -79.6219   29.0087  -78.6982 H         1 UNK         0.0781 
    110 H110      -80.0081   28.1009  -75.1598 H         1 UNK         0.0836 
    111 H111      -81.2847   29.2879  -75.1287 H         1 UNK         0.0836 
    112 H112      -78.1857   27.1823  -75.8530 H         1 UNK         0.3022 
    113 H113      -74.8780   26.2078  -74.9146 H         1 UNK         0.0747 
    114 H114      -75.4621   27.0461  -72.7766 H         1 UNK         0.0793 
    115 H115      -75.4780   28.4402  -73.8469 H         1 UNK         0.0793 
    116 H116      -76.9860   27.7117  -73.3398 H         1 UNK         0.0793 
    117 H117      -77.5395   25.4990  -74.0118 H         1 UNK         0.3047 
    118 H118      -77.8175   22.6259  -76.0709 H         1 UNK         0.0822 
    119 H119      -77.7590   21.2748  -73.9940 H         1 UNK         0.0807 
    120 H120      -76.9291   22.5757  -73.1387 H         1 UNK         0.0807 
    121 H121      -76.1303   21.7353  -74.4600 H         1 UNK         0.0807 
    122 H122      -79.2303   23.3497  -73.7189 H         1 UNK         0.2946 
    123 H123      -81.3123   25.8711  -75.0238 H         1 UNK         0.1144 
    124 H124      -82.3755   23.8097  -75.9672 H         1 UNK         0.0793 
    125 H125      -83.1580   24.3120  -74.4790 H         1 UNK         0.0793 
    126 H126      -82.0442   22.9435  -74.4734 H         1 UNK         0.0793 
    127 H127      -81.5454   24.5501  -72.5717 H         1 UNK         0.2896 
@<TRIPOS>BOND
     1    1    2 1    
     2    1   67 1    
     3    1   68 1    
     4    1   69 1    
     5    2    3 2    
     6    2    4 am   BACKBONE|DICT|INTERRES
     7    4    5 1    
     8    4   70 1    
     9    5    6 1    
    10    5   65 1    
    11    5   71 1    
    12    6    7 1    
    13    6   72 1    
    14    6   73 1    
    15    7    8 1    
    16    8    9 1    
    17    8   74 1    
    18    8   75 1    
    19    9   10 ar   
    20    9   14 ar   
    21   10   11 ar   
    22   10   76 1    
    23   11   12 ar   
    24   11   48 1    
    25   12   13 ar   
    26   12   77 1    
    27   13   14 ar   
    28   13   15 1    
    29   14   78 1    
    30   15   16 1    
    31   15   79 1    
    32   15   80 1    
    33   16   17 1    
    34   17   18 1    
    35   17   81 1    
    36   17   82 1    
    37   18   19 1    
    38   18   22 1    
    39   18   83 1    
    40   19   20 am   BACKBONE|DICT|INTERRES
    41   19   21 2    
    42   20   84 1    
    43   20   85 1    
    44   22   23 am   BACKBONE|DICT|INTERRES
    45   22   86 1    
    46   23   24 2    
    47   23   25 1    
    48   25   26 1    
    49   25   27 1    
    50   25   87 1    
    51   26   88 1    
    52   26   89 1    
    53   26   90 1    
    54   27   28 am   BACKBONE|DICT|INTERRES
    55   27   91 1    
    56   28   29 2    
    57   28   30 1    
    58   30   31 1    
    59   30   32 1    
    60   30   92 1    
    61   31   93 1    
    62   31   94 1    
    63   31   95 1    
    64   32   33 am   BACKBONE|DICT|INTERRES
    65   32   96 1    
    66   33   34 2    
    67   33   35 1    
    68   35   36 1    
    69   35   37 1    
    70   35   97 1    
    71   36   98 1    
    72   36   99 1    
    73   36  100 1    
    74   37   38 am   BACKBONE|DICT|INTERRES
    75   37  101 1    
    76   38   39 2    
    77   38   40 1    
    78   40   41 1    
    79   40   42 1    
    80   40  102 1    
    81   41  103 1    
    82   41  104 1    
    83   41  105 1    
    84   42   43 am   BACKBONE|DICT|INTERRES
    85   42  106 1    
    86   43   44 2    
    87   43   45 1    
    88   45   46 1    
    89   45   49 1    
    90   45  107 1    
    91   46   47 1    
    92   46  108 1    
    93   46  109 1    
    94   47   48 1    
    95   48  110 1    
    96   48  111 1    
    97   49   50 am   BACKBONE|DICT|INTERRES
    98   49  112 1    
    99   50   51 2    
   100   50   52 1    
   101   52   53 1    
   102   52   54 1    
   103   52  113 1    
   104   53  114 1    
   105   53  115 1    
   106   53  116 1    
   107   54   55 am   BACKBONE|DICT|INTERRES
   108   54  117 1    
   109   55   56 2    
   110   55   57 1    
   111   57   58 1    
   112   57   59 1    
   113   57  118 1    
   114   58  119 1    
   115   58  120 1    
   116   58  121 1    
   117   59   60 am   BACKBONE|DICT|INTERRES
   118   59  122 1    
   119   60   61 2    
   120   60   62 1    
   121   62   63 1    
   122   62   64 1    
   123   62  123 1    
   124   63  124 1    
   125   63  125 1    
   126   63  126 1    
   127   64   65 am   BACKBONE|DICT|INTERRES
   128   64  127 1    
   129   65   66 2    
@<TRIPOS>SUBSTRUCTURE
     1 UNK         1 GROUP             0       ****    0 ROOT    
