@<TRIPOS>MOLECULE
3R135
127   129    1
SMALL
USER_CHARGES


@<TRIPOS>ATOM
      1 CA        -84.3446   30.7918  -74.4759 C.3       0 UNK        -0.1998 
      2 C         -83.2276   30.0440  -75.1882 C.2       0 UNK         0.4909 
      3 O         -83.1673   30.0602  -76.4180 O.2       0 UNK        -0.5240 
      4 N         -82.3429   29.3887  -74.4248 N.am      1 UNK        -0.4739 
      5 CA        -81.2009   28.6167  -74.9376 C.3       1 UNK         0.0864 
      6 C6        -80.1440   28.3579  -73.8358 C.3       11 UNK        -0.0881 
      7 S7        -79.3892   29.9144  -73.2607 S.3       11 UNK        -0.2682 
      8 C8        -78.7828   29.4423  -71.6109 C.3       11 UNK         0.0289 
      9 C9        -77.6363   28.4416  -71.6757 C.ar      11 UNK        -0.0687 
     10 C10       -77.7901   27.1550  -71.1471 C.ar      11 UNK        -0.0823 
     11 C11       -76.7234   26.2498  -71.1580 C.ar      11 UNK        -0.0830 
     12 C12       -75.5023   26.6380  -71.7123 C.ar      11 UNK        -0.1021 
     13 C13       -75.3464   27.9075  -72.2727 C.ar      11 UNK        -0.0753 
     14 C14       -76.4110   28.8116  -72.2408 C.ar      11 UNK        -0.0933 
     15 C15       -74.0354   28.2743  -72.9442 C.3       11 UNK         0.0166 
     16 S16       -72.8294   28.9245  -71.7508 S.3       11 UNK        -0.2615 
     17 C17       -73.1040   30.7306  -71.8038 C.3       11 UNK        -0.0865 
     18 CA        -73.0625   31.3965  -73.2109 C.3       10 UNK         0.0862 
     19 C         -73.0595   32.9476  -73.0694 C.2       10 UNK         0.5551 
     20 N         -72.0001   33.6489  -73.4543 N.am      10 UNK        -0.7319 
     21 O         -74.0384   33.5216  -72.5989 O.2       10 UNK        -0.5018 
     22 N         -72.0088   30.8355  -74.0792 N.am      10 UNK        -0.4509 
     23 C         -71.9253   31.0147  -75.4035 C.2       10 UNK         0.4899 
     24 O         -72.7218   31.6918  -76.0536 O.2       10 UNK        -0.4839 
     25 CA        -70.7640   30.3241  -76.1405 C.3       9 UNK         0.0222 
     26 CB        -69.4020   30.9422  -75.7650 C.3       9 UNK        -0.1966 
     27 N         -70.7619   28.8609  -76.0130 N.am      9 UNK        -0.4218 
     28 C         -70.5441   28.1009  -74.9317 C.2       9 UNK         0.5020 
     29 O         -70.2455   28.5649  -73.8304 O.2       9 UNK        -0.5274 
     30 CA        -70.6666   26.5687  -75.1131 C.3       8 UNK         0.0270 
     31 CB        -70.7421   25.8206  -73.7684 C.3       8 UNK        -0.1976 
     32 N         -71.7978   26.1492  -75.9543 N.am      8 UNK        -0.4313 
     33 C         -71.8500   26.2474  -77.2923 C.2       8 UNK         0.5041 
     34 O         -70.9478   26.7530  -77.9613 O.2       8 UNK        -0.5577 
     35 CA        -73.1060   25.7309  -78.0207 C.3       7 UNK         0.0284 
     36 CB        -72.8444   24.3372  -78.6138 C.3       7 UNK        -0.1958 
     37 N         -74.3042   25.6722  -77.1844 N.am      7 UNK        -0.4454 
     38 C         -74.9117   26.7238  -76.6179 C.2       7 UNK         0.5089 
     39 O         -74.5677   27.8919  -76.7978 O.2       7 UNK        -0.5125 
     40 CA        -76.0919   26.4226  -75.6758 C.3       6 UNK         0.0408 
     41 CB        -77.4155   26.6806  -76.4082 C.3       6 UNK        -0.1791 
     42 N         -76.1153   25.0657  -75.1105 N.am      6 UNK        -0.4762 
     43 C         -75.1295   24.4731  -74.4132 C.2       6 UNK         0.5007 
     44 O         -74.0266   24.9873  -74.2218 O.2       6 UNK        -0.5032 
     45 CA        -75.3822   23.0486  -73.8753 C.3       5 UNK         0.0783 
     46 C46       -75.6071   23.0362  -72.3409 C.3       11 UNK        -0.0857 
     47 S47       -77.2651   23.6054  -71.8138 S.3       11 UNK        -0.2512 
     48 C48       -76.8829   24.8628  -70.5527 C.3       11 UNK         0.0225 
     49 N         -76.4431   22.3306  -74.5876 N.am      5 UNK        -0.4615 
     50 C         -76.4053   21.9566  -75.8727 C.2       4 UNK         0.5053 
     51 O         -75.4315   22.1341  -76.6052 O.2       4 UNK        -0.5105 
     52 CA        -77.6721   21.2923  -76.4449 C.3       4 UNK         0.0263 
     53 CB        -77.4972   19.7659  -76.4962 C.3       4 UNK        -0.1981 
     54 N         -78.9092   21.6123  -75.7179 N.am      4 UNK        -0.4224 
     55 C         -79.4490   22.8355  -75.6258 C.2       3 UNK         0.4895 
     56 O         -78.9323   23.8496  -76.0983 O.2       3 UNK        -0.5091 
     57 CA        -80.7639   22.9477  -74.8474 C.3       3 UNK         0.0250 
     58 CB        -80.5017   23.1037  -73.3390 C.3       3 UNK        -0.1996 
     59 N         -81.5109   24.1002  -75.3425 N.am      3 UNK        -0.4254 
     60 C         -82.8309   24.2799  -75.2324 C.2       2 UNK         0.5004 
     61 O         -83.5782   23.4849  -74.6583 O.2       2 UNK        -0.5226 
     62 CA        -83.4071   25.5675  -75.8550 C.3       2 UNK         0.0269 
     63 CB        -84.9391   25.6602  -75.7195 C.3       2 UNK        -0.1926 
     64 N         -82.8133   26.7755  -75.2752 N.am      2 UNK        -0.4687 
     65 C         -81.6269   27.2973  -75.6174 C.2       1 UNK         0.5165 
     66 O         -80.8808   26.7775  -76.4474 O.2       1 UNK        -0.5079 
     67 H67       -85.3139   30.4024  -74.7861 H         1 UNK         0.0900 
     68 H68       -84.3062   31.8513  -74.7276 H         1 UNK         0.0900 
     69 H69       -84.2721   30.6982  -73.3925 H         1 UNK         0.0900 
     70 H70       -82.4250   29.4325  -73.4188 H         1 UNK         0.2959 
     71 H71       -80.7253   29.2121  -75.7209 H         1 UNK         0.1079 
     72 H72       -80.5901   27.8296  -72.9910 H         1 UNK         0.0837 
     73 H73       -79.3372   27.7219  -74.2007 H         1 UNK         0.0837 
     74 H74       -79.6130   29.0529  -71.0195 H         1 UNK         0.0685 
     75 H75       -78.4371   30.3398  -71.0962 H         1 UNK         0.0685 
     76 H76       -78.7360   26.8619  -70.7126 H         1 UNK         0.1434 
     77 H77       -74.6716   25.9468  -71.7266 H         1 UNK         0.1329 
     78 H78       -76.2915   29.7997  -72.6636 H         1 UNK         0.1335 
     79 H79       -73.6043   27.3875  -73.4055 H         1 UNK         0.0680 
     80 H80       -74.2054   28.9640  -73.7692 H         1 UNK         0.0680 
     81 H81       -74.0594   30.9420  -71.3198 H         1 UNK         0.1032 
     82 H82       -72.3426   31.1752  -71.1597 H         1 UNK         0.1032 
     83 H83       -74.0100   31.1709  -73.7021 H         1 UNK         0.0461 
     84 H84       -71.1955   33.1821  -73.8400 H         1 UNK         0.3453 
     85 H85       -72.0083   34.6523  -73.3603 H         1 UNK         0.3453 
     86 H86       -71.3448   30.2023  -73.6424 H         1 UNK         0.2984 
     87 H87       -70.9153   30.5143  -77.2044 H         1 UNK         0.0554 
     88 H88       -68.5943   30.5030  -76.3505 H         1 UNK         0.0847 
     89 H89       -69.1609   30.8062  -74.7105 H         1 UNK         0.0847 
     90 H90       -69.3961   32.0151  -75.9610 H         1 UNK         0.0847 
     91 H91       -70.9618   28.3501  -76.8695 H         1 UNK         0.3141 
     92 H92       -69.7475   26.2480  -75.6080 H         1 UNK         0.0743 
     93 H93       -69.8631   26.0235  -73.1553 H         1 UNK         0.0784 
     94 H94       -71.6171   26.1171  -73.1896 H         1 UNK         0.0784 
     95 H95       -70.7891   24.7414  -73.9152 H         1 UNK         0.0784 
     96 H96       -72.5973   25.7559  -75.4653 H         1 UNK         0.3213 
     97 H97       -73.3100   26.4217  -78.8415 H         1 UNK         0.0855 
     98 H98       -72.6645   23.5946  -77.8351 H         1 UNK         0.0814 
     99 H99       -71.9687   24.3469  -79.2646 H         1 UNK         0.0814 
    100 H100      -73.6880   23.9955  -79.2139 H         1 UNK         0.0814 
    101 H101      -74.6656   24.7526  -76.9699 H         1 UNK         0.3105 
    102 H102      -76.0284   27.1180  -74.8392 H         1 UNK         0.0547 
    103 H103      -77.5185   26.0474  -77.2904 H         1 UNK         0.0837 
    104 H104      -78.2692   26.4820  -75.7636 H         1 UNK         0.0837 
    105 H105      -77.4891   27.7179  -76.7370 H         1 UNK         0.0837 
    106 H106      -76.9771   24.5491  -75.2439 H         1 UNK         0.3020 
    107 H107      -74.4552   22.5028  -74.0670 H         1 UNK         0.1245 
    108 H108      -74.8282   23.6071  -71.8332 H         1 UNK         0.0781 
    109 H109      -75.4914   22.0148  -71.9752 H         1 UNK         0.0781 
    110 H110      -75.9858   24.5833  -69.9984 H         1 UNK         0.0836 
    111 H111      -77.6920   24.8708  -69.8208 H         1 UNK         0.0836 
    112 H112      -77.2854   22.1587  -74.0584 H         1 UNK         0.3022 
    113 H113      -77.7883   21.6570  -77.4678 H         1 UNK         0.0747 
    114 H114      -78.3417   19.2850  -76.9902 H         1 UNK         0.0793 
    115 H115      -76.6008   19.4939  -77.0557 H         1 UNK         0.0793 
    116 H116      -77.4006   19.3365  -75.4982 H         1 UNK         0.0793 
    117 H117      -79.3904   20.8354  -75.2870 H         1 UNK         0.3047 
    118 H118      -81.3478   22.0420  -75.0260 H         1 UNK         0.0822 
    119 H119      -79.9098   22.2738  -72.9512 H         1 UNK         0.0807 
    120 H120      -81.4328   23.1251  -72.7728 H         1 UNK         0.0807 
    121 H121      -79.9603   24.0255  -73.1223 H         1 UNK         0.0807 
    122 H122      -80.9550   24.7924  -75.8395 H         1 UNK         0.2946 
    123 H123      -83.1725   25.5354  -76.9218 H         1 UNK         0.1144 
    124 H124      -85.4254   24.7970  -76.1761 H         1 UNK         0.0793 
    125 H125      -85.3280   26.5486  -76.2178 H         1 UNK         0.0793 
    126 H126      -85.2518   25.6970  -74.6752 H         1 UNK         0.0793 
    127 H127      -83.3546   27.2536  -74.5696 H         1 UNK         0.2896 
@<TRIPOS>BOND
     1    1    2 1    
     2    1   67 1    
     3    1   68 1    
     4    1   69 1    
     5    2    3 2    
     6    2    4 am   BACKBONE|DICT|INTERRES
     7    4    5 1    
     8    4   70 1    
     9    5    6 1    
    10    5   65 1    
    11    5   71 1    
    12    6    7 1    
    13    6   72 1    
    14    6   73 1    
    15    7    8 1    
    16    8    9 1    
    17    8   74 1    
    18    8   75 1    
    19    9   10 ar   
    20    9   14 ar   
    21   10   11 ar   
    22   10   76 1    
    23   11   12 ar   
    24   11   48 1    
    25   12   13 ar   
    26   12   77 1    
    27   13   14 ar   
    28   13   15 1    
    29   14   78 1    
    30   15   16 1    
    31   15   79 1    
    32   15   80 1    
    33   16   17 1    
    34   17   18 1    
    35   17   81 1    
    36   17   82 1    
    37   18   19 1    
    38   18   22 1    
    39   18   83 1    
    40   19   20 am   BACKBONE|DICT|INTERRES
    41   19   21 2    
    42   20   84 1    
    43   20   85 1    
    44   22   23 am   BACKBONE|DICT|INTERRES
    45   22   86 1    
    46   23   24 2    
    47   23   25 1    
    48   25   26 1    
    49   25   27 1    
    50   25   87 1    
    51   26   88 1    
    52   26   89 1    
    53   26   90 1    
    54   27   28 am   BACKBONE|DICT|INTERRES
    55   27   91 1    
    56   28   29 2    
    57   28   30 1    
    58   30   31 1    
    59   30   32 1    
    60   30   92 1    
    61   31   93 1    
    62   31   94 1    
    63   31   95 1    
    64   32   33 am   BACKBONE|DICT|INTERRES
    65   32   96 1    
    66   33   34 2    
    67   33   35 1    
    68   35   36 1    
    69   35   37 1    
    70   35   97 1    
    71   36   98 1    
    72   36   99 1    
    73   36  100 1    
    74   37   38 am   BACKBONE|DICT|INTERRES
    75   37  101 1    
    76   38   39 2    
    77   38   40 1    
    78   40   41 1    
    79   40   42 1    
    80   40  102 1    
    81   41  103 1    
    82   41  104 1    
    83   41  105 1    
    84   42   43 am   BACKBONE|DICT|INTERRES
    85   42  106 1    
    86   43   44 2    
    87   43   45 1    
    88   45   46 1    
    89   45   49 1    
    90   45  107 1    
    91   46   47 1    
    92   46  108 1    
    93   46  109 1    
    94   47   48 1    
    95   48  110 1    
    96   48  111 1    
    97   49   50 am   BACKBONE|DICT|INTERRES
    98   49  112 1    
    99   50   51 2    
   100   50   52 1    
   101   52   53 1    
   102   52   54 1    
   103   52  113 1    
   104   53  114 1    
   105   53  115 1    
   106   53  116 1    
   107   54   55 am   BACKBONE|DICT|INTERRES
   108   54  117 1    
   109   55   56 2    
   110   55   57 1    
   111   57   58 1    
   112   57   59 1    
   113   57  118 1    
   114   58  119 1    
   115   58  120 1    
   116   58  121 1    
   117   59   60 am   BACKBONE|DICT|INTERRES
   118   59  122 1    
   119   60   61 2    
   120   60   62 1    
   121   62   63 1    
   122   62   64 1    
   123   62  123 1    
   124   63  124 1    
   125   63  125 1    
   126   63  126 1    
   127   64   65 am   BACKBONE|DICT|INTERRES
   128   64  127 1    
   129   65   66 2    
@<TRIPOS>SUBSTRUCTURE
     1 UNK         1 GROUP             0       ****    0 ROOT    
