@<TRIPOS>MOLECULE
3R135
127   129    1
SMALL
USER_CHARGES


@<TRIPOS>ATOM
      1 CA        -82.8745   27.0831  -76.1201 C.3       0 UNK        -0.1998 
      2 C         -81.3993   27.4127  -76.2851 C.2       0 UNK         0.4909 
      3 O         -80.9197   27.4996  -77.4154 O.2       0 UNK        -0.5240 
      4 N         -80.6809   27.5861  -75.1661 N.am      1 UNK        -0.4739 
      5 CA        -79.2481   27.8968  -75.0676 C.3       1 UNK         0.0864 
      6 C6        -78.7868   27.9120  -73.5924 C.3       11 UNK        -0.0881 
      7 S7        -79.6030   29.1920  -72.5818 S.3       11 UNK        -0.2682 
      8 C8        -78.1765   30.0833  -71.8587 C.3       11 UNK         0.0289 
      9 C9        -77.1736   29.2340  -71.0680 C.ar      11 UNK        -0.0687 
     10 C10       -77.4595   27.9362  -70.6194 C.ar      11 UNK        -0.0823 
     11 C11       -76.4974   27.1833  -69.9407 C.ar      11 UNK        -0.0830 
     12 C12       -75.2497   27.7494  -69.6692 C.ar      11 UNK        -0.1021 
     13 C13       -74.9618   29.0582  -70.0662 C.ar      11 UNK        -0.0753 
     14 C14       -75.9233   29.7882  -70.7725 C.ar      11 UNK        -0.0933 
     15 C15       -73.6272   29.6877  -69.6914 C.3       11 UNK         0.0166 
     16 S16       -72.4517   29.6970  -71.0794 S.3       11 UNK        -0.2615 
     17 C17       -72.6625   31.3944  -71.7296 C.3       11 UNK        -0.0865 
     18 CA        -72.5133   31.5004  -73.2697 C.3       10 UNK         0.0862 
     19 C         -71.0437   31.3158  -73.7398 C.2       10 UNK         0.5551 
     20 N         -70.6855   30.2466  -74.4376 N.am      10 UNK        -0.7319 
     21 O         -70.2112   32.1835  -73.4859 O.2       10 UNK        -0.5018 
     22 N         -73.5022   30.6822  -73.9899 N.am      10 UNK        -0.4509 
     23 C         -74.7390   31.0946  -74.3019 C.2       10 UNK         0.4899 
     24 O         -75.1874   32.1933  -73.9703 O.2       10 UNK        -0.4839 
     25 CA        -75.6488   30.1290  -75.0938 C.3       9 UNK         0.0222 
     26 CB        -76.6641   30.8713  -75.9887 C.3       9 UNK        -0.1966 
     27 N         -74.9197   29.1111  -75.8565 N.am      9 UNK        -0.4218 
     28 C         -74.0480   29.2967  -76.8603 C.2       9 UNK         0.5020 
     29 O         -73.8382   30.3854  -77.3967 O.2       9 UNK        -0.5274 
     30 CA        -73.2599   28.0494  -77.3250 C.3       8 UNK         0.0270 
     31 CB        -71.8298   28.4059  -77.7819 C.3       8 UNK        -0.1976 
     32 N         -73.2203   26.9522  -76.3412 N.am      8 UNK        -0.4313 
     33 C         -72.7792   27.0051  -75.0736 C.2       8 UNK         0.5041 
     34 O         -72.3402   28.0360  -74.5637 O.2       8 UNK        -0.5577 
     35 CA        -72.9275   25.7350  -74.2113 C.3       7 UNK         0.0284 
     36 CB        -73.1358   26.0813  -72.7234 C.3       7 UNK        -0.1958 
     37 N         -74.0434   24.8923  -74.6496 N.am      7 UNK        -0.4454 
     38 C         -73.9962   23.9413  -75.5915 C.2       7 UNK         0.5089 
     39 O         -72.9768   23.6667  -76.2236 O.2       7 UNK        -0.5125 
     40 CA        -75.3234   23.2363  -75.9357 C.3       6 UNK         0.0408 
     41 CB        -75.1386   21.7374  -76.2508 C.3       6 UNK        -0.1791 
     42 N         -76.3869   23.4628  -74.9463 N.am      6 UNK        -0.4762 
     43 C         -76.4531   22.9872  -73.6911 C.2       6 UNK         0.5007 
     44 O         -75.6198   22.2286  -73.1958 O.2       6 UNK        -0.5032 
     45 CA        -77.6589   23.4526  -72.8489 C.3       5 UNK         0.0783 
     46 C46       -77.3436   24.7574  -72.0729 C.3       11 UNK        -0.0857 
     47 S47       -76.2081   24.5183  -70.6655 S.3       11 UNK        -0.2512 
     48 C48       -76.8106   25.7654  -69.4813 C.3       11 UNK         0.0225 
     49 N         -78.8460   23.6305  -73.6901 N.am      5 UNK        -0.4615 
     50 C         -79.6103   22.6405  -74.1641 C.2       4 UNK         0.5053 
     51 O         -79.4282   21.4508  -73.9065 O.2       4 UNK        -0.5105 
     52 CA        -80.7751   23.0506  -75.0732 C.3       4 UNK         0.0263 
     53 CB        -81.7524   23.9939  -74.3477 C.3       4 UNK        -0.1981 
     54 N         -80.3018   23.6814  -76.3119 N.am      4 UNK        -0.4224 
     55 C         -80.6947   23.3101  -77.5413 C.2       3 UNK         0.4895 
     56 O         -81.4448   22.3553  -77.7506 O.2       3 UNK        -0.5091 
     57 CA        -80.2160   24.1314  -78.7558 C.3       3 UNK         0.0250 
     58 CB        -81.4185   24.7165  -79.5184 C.3       3 UNK        -0.1996 
     59 N         -79.3153   25.2298  -78.4023 N.am      3 UNK        -0.4254 
     60 C         -77.9773   25.1705  -78.4534 C.2       2 UNK         0.5004 
     61 O         -77.3513   24.1817  -78.8330 O.2       2 UNK        -0.5226 
     62 CA        -77.1938   26.4145  -77.9841 C.3       2 UNK         0.0269 
     63 CB        -76.7466   27.2527  -79.1921 C.3       2 UNK        -0.1926 
     64 N         -77.9331   27.2762  -77.0550 N.am      2 UNK        -0.4687 
     65 C         -78.3939   26.8877  -75.8597 C.2       1 UNK         0.5165 
     66 O         -78.2105   25.7580  -75.3998 O.2       1 UNK        -0.5079 
     67 H67       -83.4846   27.8546  -76.5890 H         1 UNK         0.0900 
     68 H68       -83.1628   27.0118  -75.0716 H         1 UNK         0.0900 
     69 H69       -83.1010   26.1315  -76.6000 H         1 UNK         0.0900 
     70 H70       -81.1542   27.5266  -74.2757 H         1 UNK         0.2959 
     71 H71       -79.0943   28.8912  -75.4901 H         1 UNK         0.1079 
     72 H72       -77.7056   28.0407  -73.5311 H         1 UNK         0.0837 
     73 H73       -78.9998   26.9504  -73.1244 H         1 UNK         0.0837 
     74 H74       -78.5627   30.8600  -71.1976 H         1 UNK         0.0685 
     75 H75       -77.6567   30.6014  -72.6657 H         1 UNK         0.0685 
     76 H76       -78.4287   27.4965  -70.8012 H         1 UNK         0.1434 
     77 H77       -74.5073   27.1737  -69.1332 H         1 UNK         0.1329 
     78 H78       -75.7014   30.7976  -71.0887 H         1 UNK         0.1335 
     79 H79       -73.7824   30.7003  -69.3163 H         1 UNK         0.0680 
     80 H80       -73.1739   29.1347  -68.8673 H         1 UNK         0.0680 
     81 H81       -73.6429   31.7753  -71.4448 H         1 UNK         0.1032 
     82 H82       -71.9448   32.0478  -71.2299 H         1 UNK         0.1032 
     83 H83       -72.7211   32.5415  -73.5255 H         1 UNK         0.0461 
     84 H84       -69.7287   30.1617  -74.7388 H         1 UNK         0.3453 
     85 H85       -71.3211   29.4591  -74.5571 H         1 UNK         0.3453 
     86 H86       -73.1895   29.7554  -74.2642 H         1 UNK         0.2984 
     87 H87       -76.2130   29.5804  -74.3414 H         1 UNK         0.0554 
     88 H88       -77.2652   30.1793  -76.5760 H         1 UNK         0.0847 
     89 H89       -76.1667   31.5494  -76.6830 H         1 UNK         0.0847 
     90 H90       -77.3504   31.4698  -75.3885 H         1 UNK         0.0847 
     91 H91       -74.9810   28.1729  -75.4903 H         1 UNK         0.3141 
     92 H92       -73.7948   27.6617  -78.1927 H         1 UNK         0.0743 
     93 H93       -71.8455   29.1167  -78.6090 H         1 UNK         0.0784 
     94 H94       -71.2494   28.8576  -76.9771 H         1 UNK         0.0784 
     95 H95       -71.2919   27.5232  -78.1276 H         1 UNK         0.0784 
     96 H96       -73.5336   26.0516  -76.6757 H         1 UNK         0.3213 
     97 H97       -71.9948   25.1743  -74.3024 H         1 UNK         0.0855 
     98 H98       -74.0223   26.6984  -72.5684 H         1 UNK         0.0814 
     99 H99       -72.2847   26.6356  -72.3252 H         1 UNK         0.0814 
    100 H100      -73.2446   25.1825  -72.1160 H         1 UNK         0.0814 
    101 H101      -74.9302   25.0486  -74.1947 H         1 UNK         0.3105 
    102 H102      -75.6718   23.7107  -76.8518 H         1 UNK         0.0547 
    103 H103      -74.6913   21.1954  -75.4175 H         1 UNK         0.0837 
    104 H104      -76.0899   21.2628  -76.4908 H         1 UNK         0.0837 
    105 H105      -74.4835   21.5988  -77.1116 H         1 UNK         0.0837 
    106 H106      -77.1166   24.1095  -75.2307 H         1 UNK         0.3020 
    107 H107      -77.8755   22.6629  -72.1252 H         1 UNK         0.1245 
    108 H108      -78.2746   25.1621  -71.6742 H         1 UNK         0.0781 
    109 H109      -76.9365   25.5278  -72.7304 H         1 UNK         0.0781 
    110 H110      -76.3400   25.5840  -68.5138 H         1 UNK         0.0836 
    111 H111      -77.8822   25.6369  -69.3213 H         1 UNK         0.0836 
    112 H112      -79.0108   24.5726  -74.0216 H         1 UNK         0.3022 
    113 H113      -81.3201   22.1315  -75.2990 H         1 UNK         0.0747 
    114 H114      -82.6407   24.1766  -74.9522 H         1 UNK         0.0793 
    115 H115      -82.0891   23.5583  -73.4059 H         1 UNK         0.0793 
    116 H116      -81.3002   24.9583  -74.1179 H         1 UNK         0.0793 
    117 H117      -79.6325   24.4356  -76.2189 H         1 UNK         0.3047 
    118 H118      -79.7042   23.4368  -79.4253 H         1 UNK         0.0822 
    119 H119      -82.0902   23.9281  -79.8608 H         1 UNK         0.0807 
    120 H120      -81.0965   25.2693  -80.4010 H         1 UNK         0.0807 
    121 H121      -82.0024   25.3939  -78.8945 H         1 UNK         0.0807 
    122 H122      -79.7565   26.0918  -78.0895 H         1 UNK         0.2946 
    123 H123      -76.3030   26.0566  -77.4648 H         1 UNK         0.1144 
    124 H124      -76.1265   26.6628  -79.8688 H         1 UNK         0.0793 
    125 H125      -76.1595   28.1180  -78.8855 H         1 UNK         0.0793 
    126 H126      -77.5999   27.6161  -79.7663 H         1 UNK         0.0793 
    127 H127      -78.1925   28.1889  -77.4013 H         1 UNK         0.2896 
@<TRIPOS>BOND
     1    1    2 1    
     2    1   67 1    
     3    1   68 1    
     4    1   69 1    
     5    2    3 2    
     6    2    4 am   BACKBONE|DICT|INTERRES
     7    4    5 1    
     8    4   70 1    
     9    5    6 1    
    10    5   65 1    
    11    5   71 1    
    12    6    7 1    
    13    6   72 1    
    14    6   73 1    
    15    7    8 1    
    16    8    9 1    
    17    8   74 1    
    18    8   75 1    
    19    9   10 ar   
    20    9   14 ar   
    21   10   11 ar   
    22   10   76 1    
    23   11   12 ar   
    24   11   48 1    
    25   12   13 ar   
    26   12   77 1    
    27   13   14 ar   
    28   13   15 1    
    29   14   78 1    
    30   15   16 1    
    31   15   79 1    
    32   15   80 1    
    33   16   17 1    
    34   17   18 1    
    35   17   81 1    
    36   17   82 1    
    37   18   19 1    
    38   18   22 1    
    39   18   83 1    
    40   19   20 am   BACKBONE|DICT|INTERRES
    41   19   21 2    
    42   20   84 1    
    43   20   85 1    
    44   22   23 am   BACKBONE|DICT|INTERRES
    45   22   86 1    
    46   23   24 2    
    47   23   25 1    
    48   25   26 1    
    49   25   27 1    
    50   25   87 1    
    51   26   88 1    
    52   26   89 1    
    53   26   90 1    
    54   27   28 am   BACKBONE|DICT|INTERRES
    55   27   91 1    
    56   28   29 2    
    57   28   30 1    
    58   30   31 1    
    59   30   32 1    
    60   30   92 1    
    61   31   93 1    
    62   31   94 1    
    63   31   95 1    
    64   32   33 am   BACKBONE|DICT|INTERRES
    65   32   96 1    
    66   33   34 2    
    67   33   35 1    
    68   35   36 1    
    69   35   37 1    
    70   35   97 1    
    71   36   98 1    
    72   36   99 1    
    73   36  100 1    
    74   37   38 am   BACKBONE|DICT|INTERRES
    75   37  101 1    
    76   38   39 2    
    77   38   40 1    
    78   40   41 1    
    79   40   42 1    
    80   40  102 1    
    81   41  103 1    
    82   41  104 1    
    83   41  105 1    
    84   42   43 am   BACKBONE|DICT|INTERRES
    85   42  106 1    
    86   43   44 2    
    87   43   45 1    
    88   45   46 1    
    89   45   49 1    
    90   45  107 1    
    91   46   47 1    
    92   46  108 1    
    93   46  109 1    
    94   47   48 1    
    95   48  110 1    
    96   48  111 1    
    97   49   50 am   BACKBONE|DICT|INTERRES
    98   49  112 1    
    99   50   51 2    
   100   50   52 1    
   101   52   53 1    
   102   52   54 1    
   103   52  113 1    
   104   53  114 1    
   105   53  115 1    
   106   53  116 1    
   107   54   55 am   BACKBONE|DICT|INTERRES
   108   54  117 1    
   109   55   56 2    
   110   55   57 1    
   111   57   58 1    
   112   57   59 1    
   113   57  118 1    
   114   58  119 1    
   115   58  120 1    
   116   58  121 1    
   117   59   60 am   BACKBONE|DICT|INTERRES
   118   59  122 1    
   119   60   61 2    
   120   60   62 1    
   121   62   63 1    
   122   62   64 1    
   123   62  123 1    
   124   63  124 1    
   125   63  125 1    
   126   63  126 1    
   127   64   65 am   BACKBONE|DICT|INTERRES
   128   64  127 1    
   129   65   66 2    
@<TRIPOS>SUBSTRUCTURE
     1 UNK         1 GROUP             0       ****    0 ROOT    
