@<TRIPOS>MOLECULE
3R135
127   129    1
SMALL
USER_CHARGES


@<TRIPOS>ATOM
      1 CA        -79.2929   25.8075  -69.1578 C.3       0 UNK        -0.1998 
      2 C         -80.6987   26.1113  -69.6484 C.2       0 UNK         0.4909 
      3 O         -81.6312   25.3721  -69.3316 O.2       0 UNK        -0.5240 
      4 N         -80.8585   27.2014  -70.4108 N.am      1 UNK        -0.4739 
      5 CA        -82.1468   27.6582  -70.9540 C.3       1 UNK         0.0864 
      6 C6        -82.0996   29.1286  -71.4462 C.3       11 UNK        -0.0881 
      7 S7        -81.3709   30.2633  -70.2090 S.3       11 UNK        -0.2682 
      8 C8        -80.0044   31.0567  -71.1248 C.3       11 UNK         0.0289 
      9 C9        -79.0534   30.0586  -71.7754 C.ar      11 UNK        -0.0687 
     10 C10       -78.9818   29.9742  -73.1707 C.ar      11 UNK        -0.0823 
     11 C11       -78.1220   29.0591  -73.7819 C.ar      11 UNK        -0.0830 
     12 C12       -77.3440   28.2156  -72.9882 C.ar      11 UNK        -0.1021 
     13 C13       -77.3775   28.3098  -71.5946 C.ar      11 UNK        -0.0753 
     14 C14       -78.2362   29.2356  -70.9916 C.ar      11 UNK        -0.0933 
     15 C15       -76.4727   27.4204  -70.7513 C.3       11 UNK         0.0166 
     16 S16       -74.7250   27.5222  -71.2582 S.3       11 UNK        -0.2615 
     17 C17       -74.3020   29.2382  -70.7923 C.3       11 UNK        -0.0865 
     18 CA        -74.5075   30.2907  -71.9267 C.3       10 UNK         0.0862 
     19 C         -74.1285   31.7309  -71.4666 C.2       10 UNK         0.5551 
     20 N         -73.5916   32.5820  -72.3328 N.am      10 UNK        -0.7319 
     21 O         -74.3485   32.0961  -70.3142 O.2       10 UNK        -0.5018 
     22 N         -73.9436   29.8967  -73.2324 N.am      10 UNK        -0.4509 
     23 C         -72.6658   29.5884  -73.4798 C.2       10 UNK         0.4899 
     24 O         -71.7718   29.5688  -72.6317 O.2       10 UNK        -0.4839 
     25 CA        -72.3194   29.2429  -74.9292 C.3       9 UNK         0.0222 
     26 CB        -71.4228   30.3242  -75.5616 C.3       9 UNK        -0.1966 
     27 N         -71.6554   27.9432  -74.9331 N.am      9 UNK        -0.4218 
     28 C         -71.5488   27.1320  -75.9906 C.2       9 UNK         0.5020 
     29 O         -71.9140   27.4487  -77.1232 O.2       9 UNK        -0.5274 
     30 CA        -70.9433   25.7366  -75.7633 C.3       8 UNK         0.0270 
     31 CB        -70.9562   25.2809  -74.2886 C.3       8 UNK        -0.1976 
     32 N         -71.6973   24.7714  -76.5614 N.am      8 UNK        -0.4313 
     33 C         -71.1890   23.9303  -77.4681 C.2       8 UNK         0.5041 
     34 O         -69.9884   23.8453  -77.7323 O.2       8 UNK        -0.5577 
     35 CA        -72.1836   23.0197  -78.2036 C.3       7 UNK         0.0284 
     36 CB        -72.6195   21.8573  -77.2949 C.3       7 UNK        -0.1958 
     37 N         -73.3717   23.7540  -78.6471 N.am      7 UNK        -0.4454 
     38 C         -73.6809   24.0178  -79.9255 C.2       7 UNK         0.5089 
     39 O         -72.9759   23.6918  -80.8814 O.2       7 UNK        -0.5125 
     40 CA        -75.0110   24.7484  -80.2030 C.3       6 UNK         0.0408 
     41 CB        -76.0880   23.7427  -80.6396 C.3       6 UNK        -0.1791 
     42 N         -75.4954   25.5034  -79.0449 N.am      6 UNK        -0.4762 
     43 C         -74.9970   26.6913  -78.6651 C.2       6 UNK         0.5007 
     44 O         -74.2133   27.3367  -79.3614 O.2       6 UNK        -0.5032 
     45 CA        -75.4147   27.2568  -77.2857 C.3       5 UNK         0.0783 
     46 C46       -76.2158   28.5750  -77.4380 C.3       11 UNK        -0.0857 
     47 S47       -76.3527   29.4679  -75.8543 S.3       11 UNK        -0.2512 
     48 C48       -78.0149   28.9738  -75.2958 C.3       11 UNK         0.0225 
     49 N         -76.1226   26.2842  -76.4431 N.am      5 UNK        -0.4615 
     50 C         -75.6094   25.1544  -75.9381 C.2       4 UNK         0.5053 
     51 O         -74.4336   24.8209  -76.0798 O.2       4 UNK        -0.5105 
     52 CA        -76.5868   24.1962  -75.2325 C.3       4 UNK         0.0263 
     53 CB        -76.4728   24.3163  -73.7048 C.3       4 UNK        -0.1981 
     54 N         -77.9837   24.3943  -75.6372 N.am      4 UNK        -0.4224 
     55 C         -78.4742   24.1844  -76.8663 C.2       3 UNK         0.4895 
     56 O         -77.7842   23.7394  -77.7843 O.2       3 UNK        -0.5091 
     57 CA        -79.9440   24.5847  -77.1448 C.3       3 UNK         0.0250 
     58 CB        -80.5541   23.7585  -78.2931 C.3       3 UNK        -0.1996 
     59 N         -80.8613   24.5398  -75.9953 N.am      3 UNK        -0.4254 
     60 C         -80.8315   25.3362  -74.9189 C.2       2 UNK         0.5004 
     61 O         -79.9412   26.1657  -74.7161 O.2       2 UNK        -0.5226 
     62 CA        -81.9549   25.1578  -73.8879 C.3       2 UNK         0.0269 
     63 CB        -81.9877   23.7278  -73.3150 C.3       2 UNK        -0.1926 
     64 N         -81.7316   26.1020  -72.7985 N.am      2 UNK        -0.4687 
     65 C         -82.6640   26.7252  -72.0704 C.2       1 UNK         0.5165 
     66 O         -83.8760   26.5805  -72.2381 O.2       1 UNK        -0.5079 
     67 H67       -78.7192   26.7222  -69.0171 H         1 UNK         0.0900 
     68 H68       -79.3278   25.2877  -68.2005 H         1 UNK         0.0900 
     69 H69       -78.7731   25.1706  -69.8729 H         1 UNK         0.0900 
     70 H70       -80.0641   27.7856  -70.6336 H         1 UNK         0.2959 
     71 H71       -82.8756   27.6073  -70.1416 H         1 UNK         0.1079 
     72 H72       -83.1099   29.4796  -71.6653 H         1 UNK         0.0837 
     73 H73       -81.5539   29.2027  -72.3873 H         1 UNK         0.0837 
     74 H74       -80.4309   31.7272  -71.8724 H         1 UNK         0.0685 
     75 H75       -79.4412   31.6888  -70.4370 H         1 UNK         0.0685 
     76 H76       -79.5949   30.6225  -73.7816 H         1 UNK         0.1434 
     77 H77       -76.6709   27.5164  -73.4630 H         1 UNK         0.1329 
     78 H78       -78.2725   29.3197  -69.9138 H         1 UNK         0.1335 
     79 H79       -76.8023   26.3863  -70.8560 H         1 UNK         0.0680 
     80 H80       -76.5505   27.6690  -69.6920 H         1 UNK         0.0680 
     81 H81       -73.2627   29.2437  -70.4604 H         1 UNK         0.1032 
     82 H82       -74.8889   29.5126  -69.9140 H         1 UNK         0.1032 
     83 H83       -75.5798   30.3556  -72.1069 H         1 UNK         0.0461 
     84 H84       -73.4183   32.3000  -73.2836 H         1 UNK         0.3453 
     85 H85       -73.3582   33.5146  -72.0301 H         1 UNK         0.3453 
     86 H86       -74.6072   29.8779  -73.9952 H         1 UNK         0.2984 
     87 H87       -73.2429   29.1692  -75.5066 H         1 UNK         0.0554 
     88 H88       -71.9072   31.3007  -75.5296 H         1 UNK         0.0847 
     89 H89       -71.2101   30.1052  -76.6080 H         1 UNK         0.0847 
     90 H90       -70.4700   30.4137  -75.0383 H         1 UNK         0.0847 
     91 H91       -71.3365   27.6251  -74.0267 H         1 UNK         0.3141 
     92 H92       -69.9070   25.7859  -76.1031 H         1 UNK         0.0743 
     93 H93       -71.9635   25.2937  -73.8689 H         1 UNK         0.0784 
     94 H94       -70.5743   24.2642  -74.1924 H         1 UNK         0.0784 
     95 H95       -70.3221   25.9137  -73.6667 H         1 UNK         0.0784 
     96 H96       -72.7075   24.7951  -76.4230 H         1 UNK         0.3213 
     97 H97       -71.6600   22.5918  -79.0614 H         1 UNK         0.0855 
     98 H98       -73.1620   22.2083  -76.4159 H         1 UNK         0.0814 
     99 H99       -71.7554   21.2928  -76.9417 H         1 UNK         0.0814 
    100 H100      -73.2651   21.1600  -77.8289 H         1 UNK         0.0814 
    101 H101      -73.9853   24.1012  -77.9190 H         1 UNK         0.3105 
    102 H102      -74.8447   25.4408  -81.0310 H         1 UNK         0.0547 
    103 H103      -75.7883   23.2226  -81.5503 H         1 UNK         0.0837 
    104 H104      -76.2654   22.9836  -79.8768 H         1 UNK         0.0837 
    105 H105      -77.0367   24.2381  -80.8463 H         1 UNK         0.0837 
    106 H106      -76.1748   25.0362  -78.4544 H         1 UNK         0.3020 
    107 H107      -74.4801   27.4929  -76.7761 H         1 UNK         0.1245 
    108 H108      -77.2068   28.3898  -77.8566 H         1 UNK         0.0781 
    109 H109      -75.7159   29.2510  -78.1348 H         1 UNK         0.0781 
    110 H110      -78.2300   27.9517  -75.6040 H         1 UNK         0.0836 
    111 H111      -78.7600   29.6055  -75.7817 H         1 UNK         0.0836 
    112 H112      -77.1004   26.4674  -76.2811 H         1 UNK         0.3022 
    113 H113      -76.2970   23.1823  -75.5162 H         1 UNK         0.0747 
    114 H114      -77.0312   23.5239  -73.2062 H         1 UNK         0.0793 
    115 H115      -75.4347   24.2339  -73.3789 H         1 UNK         0.0793 
    116 H116      -76.8557   25.2685  -73.3411 H         1 UNK         0.0793 
    117 H117      -78.5985   24.8574  -74.9740 H         1 UNK         0.3047 
    118 H118      -79.9055   25.6238  -77.4786 H         1 UNK         0.0822 
    119 H119      -81.5630   24.0943  -78.5339 H         1 UNK         0.0807 
    120 H120      -80.6023   22.6982  -78.0423 H         1 UNK         0.0807 
    121 H121      -79.9643   23.8510  -79.2063 H         1 UNK         0.0807 
    122 H122      -81.6043   23.8587  -76.0588 H         1 UNK         0.2946 
    123 H123      -82.9027   25.3828  -74.3826 H         1 UNK         0.1144 
    124 H124      -82.2109   22.9906  -74.0867 H         1 UNK         0.0793 
    125 H125      -82.7563   23.6280  -72.5482 H         1 UNK         0.0793 
    126 H126      -81.0329   23.4537  -72.8639 H         1 UNK         0.0793 
    127 H127      -80.7607   26.3499  -72.6553 H         1 UNK         0.2896 
@<TRIPOS>BOND
     1    1    2 1    
     2    1   67 1    
     3    1   68 1    
     4    1   69 1    
     5    2    3 2    
     6    2    4 am   BACKBONE|DICT|INTERRES
     7    4    5 1    
     8    4   70 1    
     9    5    6 1    
    10    5   65 1    
    11    5   71 1    
    12    6    7 1    
    13    6   72 1    
    14    6   73 1    
    15    7    8 1    
    16    8    9 1    
    17    8   74 1    
    18    8   75 1    
    19    9   10 ar   
    20    9   14 ar   
    21   10   11 ar   
    22   10   76 1    
    23   11   12 ar   
    24   11   48 1    
    25   12   13 ar   
    26   12   77 1    
    27   13   14 ar   
    28   13   15 1    
    29   14   78 1    
    30   15   16 1    
    31   15   79 1    
    32   15   80 1    
    33   16   17 1    
    34   17   18 1    
    35   17   81 1    
    36   17   82 1    
    37   18   19 1    
    38   18   22 1    
    39   18   83 1    
    40   19   20 am   BACKBONE|DICT|INTERRES
    41   19   21 2    
    42   20   84 1    
    43   20   85 1    
    44   22   23 am   BACKBONE|DICT|INTERRES
    45   22   86 1    
    46   23   24 2    
    47   23   25 1    
    48   25   26 1    
    49   25   27 1    
    50   25   87 1    
    51   26   88 1    
    52   26   89 1    
    53   26   90 1    
    54   27   28 am   BACKBONE|DICT|INTERRES
    55   27   91 1    
    56   28   29 2    
    57   28   30 1    
    58   30   31 1    
    59   30   32 1    
    60   30   92 1    
    61   31   93 1    
    62   31   94 1    
    63   31   95 1    
    64   32   33 am   BACKBONE|DICT|INTERRES
    65   32   96 1    
    66   33   34 2    
    67   33   35 1    
    68   35   36 1    
    69   35   37 1    
    70   35   97 1    
    71   36   98 1    
    72   36   99 1    
    73   36  100 1    
    74   37   38 am   BACKBONE|DICT|INTERRES
    75   37  101 1    
    76   38   39 2    
    77   38   40 1    
    78   40   41 1    
    79   40   42 1    
    80   40  102 1    
    81   41  103 1    
    82   41  104 1    
    83   41  105 1    
    84   42   43 am   BACKBONE|DICT|INTERRES
    85   42  106 1    
    86   43   44 2    
    87   43   45 1    
    88   45   46 1    
    89   45   49 1    
    90   45  107 1    
    91   46   47 1    
    92   46  108 1    
    93   46  109 1    
    94   47   48 1    
    95   48  110 1    
    96   48  111 1    
    97   49   50 am   BACKBONE|DICT|INTERRES
    98   49  112 1    
    99   50   51 2    
   100   50   52 1    
   101   52   53 1    
   102   52   54 1    
   103   52  113 1    
   104   53  114 1    
   105   53  115 1    
   106   53  116 1    
   107   54   55 am   BACKBONE|DICT|INTERRES
   108   54  117 1    
   109   55   56 2    
   110   55   57 1    
   111   57   58 1    
   112   57   59 1    
   113   57  118 1    
   114   58  119 1    
   115   58  120 1    
   116   58  121 1    
   117   59   60 am   BACKBONE|DICT|INTERRES
   118   59  122 1    
   119   60   61 2    
   120   60   62 1    
   121   62   63 1    
   122   62   64 1    
   123   62  123 1    
   124   63  124 1    
   125   63  125 1    
   126   63  126 1    
   127   64   65 am   BACKBONE|DICT|INTERRES
   128   64  127 1    
   129   65   66 2    
@<TRIPOS>SUBSTRUCTURE
     1 UNK         1 GROUP             0       ****    0 ROOT    
