@<TRIPOS>MOLECULE
3R135
127   129    1
SMALL
USER_CHARGES


@<TRIPOS>ATOM
      1 CA        -75.8632   21.0145  -72.6687 C.3       0 UNK        -0.1998 
      2 C         -77.1213   21.3889  -71.8989 C.2       0 UNK         0.4909 
      3 O         -77.8496   20.5056  -71.4441 O.2       0 UNK        -0.5240 
      4 N         -77.3742   22.6934  -71.7438 N.am      1 UNK        -0.4739 
      5 CA        -78.5821   23.2555  -71.1328 C.3       1 UNK         0.0864 
      6 C6        -78.3104   24.6841  -70.5930 C.3       11 UNK        -0.0881 
      7 S7        -77.8559   25.8868  -71.8899 S.3       11 UNK        -0.2682 
      8 C8        -78.9607   27.2718  -71.4904 C.3       11 UNK         0.0289 
      9 C9        -78.7510   28.4309  -72.4510 C.ar      11 UNK        -0.0687 
     10 C10       -79.7242   28.7417  -73.4036 C.ar      11 UNK        -0.0823 
     11 C11       -79.5339   29.8042  -74.2922 C.ar      11 UNK        -0.0830 
     12 C12       -78.3593   30.5616  -74.2216 C.ar      11 UNK        -0.1021 
     13 C13       -77.3758   30.2544  -73.2757 C.ar      11 UNK        -0.0753 
     14 C14       -77.5811   29.1938  -72.3887 C.ar      11 UNK        -0.0933 
     15 C15       -76.0920   31.0658  -73.2039 C.3       11 UNK         0.0166 
     16 S16       -74.7237   30.2136  -74.0462 S.3       11 UNK        -0.2615 
     17 C17       -73.3751   31.4108  -73.7619 C.3       11 UNK        -0.0865 
     18 CA        -72.1654   31.2014  -74.7196 C.3       10 UNK         0.0862 
     19 C         -71.1507   32.3874  -74.6904 C.2       10 UNK         0.5551 
     20 N         -69.8745   32.1668  -74.9829 N.am      10 UNK        -0.7319 
     21 O         -71.5249   33.5294  -74.4339 O.2       10 UNK        -0.5018 
     22 N         -71.5577   29.8619  -74.5941 N.am      10 UNK        -0.4509 
     23 C         -70.8814   29.4063  -73.5298 C.2       10 UNK         0.4899 
     24 O         -70.6962   30.0598  -72.5011 O.2       10 UNK        -0.4839 
     25 CA        -70.3022   27.9833  -73.6519 C.3       9 UNK         0.0222 
     26 CB        -69.4998   27.5506  -72.4059 C.3       9 UNK        -0.1966 
     27 N         -71.3164   26.9769  -73.9821 N.am      9 UNK        -0.4218 
     28 C         -72.4326   26.6715  -73.3046 C.2       9 UNK         0.5020 
     29 O         -72.7749   27.2267  -72.2591 O.2       9 UNK        -0.5274 
     30 CA        -73.2977   25.5316  -73.8885 C.3       8 UNK         0.0270 
     31 CB        -74.6302   25.3633  -73.1414 C.3       8 UNK        -0.1976 
     32 N         -73.5783   25.6953  -75.3192 N.am      8 UNK        -0.4313 
     33 C         -72.7043   25.4637  -76.3083 C.2       8 UNK         0.5041 
     34 O         -71.5545   25.0640  -76.1174 O.2       8 UNK        -0.5577 
     35 CA        -73.1569   25.7857  -77.7400 C.3       7 UNK         0.0284 
     36 CB        -74.0202   24.6467  -78.3062 C.3       7 UNK        -0.1958 
     37 N         -73.8867   27.0495  -77.8450 N.am      7 UNK        -0.4454 
     38 C         -73.4318   28.2651  -77.5127 C.2       7 UNK         0.5089 
     39 O         -72.3033   28.4811  -77.0676 O.2       7 UNK        -0.5125 
     40 CA        -74.4077   29.4451  -77.6848 C.3       6 UNK         0.0408 
     41 CB        -74.3981   29.9783  -79.1304 C.3       6 UNK        -0.1791 
     42 N         -75.7679   29.1682  -77.1999 N.am      6 UNK        -0.4762 
     43 C         -76.6761   28.3255  -77.7098 C.2       6 UNK         0.5007 
     44 O         -76.5158   27.6927  -78.7568 O.2       6 UNK        -0.5032 
     45 CA        -77.9656   28.1278  -76.8951 C.3       5 UNK         0.0783 
     46 C46       -79.1050   29.0053  -77.4726 C.3       11 UNK        -0.0857 
     47 S47       -80.6943   28.8035  -76.5984 S.3       11 UNK        -0.2512 
     48 C48       -80.5944   30.1144  -75.3379 C.3       11 UNK         0.0225 
     49 N         -78.3280   26.7122  -76.8273 N.am      5 UNK        -0.4615 
     50 C         -77.5945   25.7369  -76.2799 C.2       4 UNK         0.5053 
     51 O         -76.4861   25.9287  -75.7736 O.2       4 UNK        -0.5105 
     52 CA        -78.1924   24.3118  -76.3193 C.3       4 UNK         0.0263 
     53 CB        -77.3709   23.3181  -75.4778 C.3       4 UNK        -0.1981 
     54 N         -79.6056   24.2448  -75.9085 N.am      4 UNK        -0.4224 
     55 C         -80.6471   24.6530  -76.6531 C.2       3 UNK         0.4895 
     56 O         -80.5099   25.1526  -77.7711 O.2       3 UNK        -0.5091 
     57 CA        -82.0779   24.4895  -76.1049 C.3       3 UNK         0.0250 
     58 CB        -82.9332   23.6437  -77.0654 C.3       3 UNK        -0.1996 
     59 N         -82.1436   23.8840  -74.7756 N.am      3 UNK        -0.4254 
     60 C         -82.1136   24.5506  -73.6150 C.2       2 UNK         0.5004 
     61 O         -81.9896   25.7723  -73.5248 O.2       2 UNK        -0.5226 
     62 CA        -82.2378   23.7106  -72.3262 C.3       2 UNK         0.0269 
     63 CB        -82.8311   22.2995  -72.5477 C.3       2 UNK        -0.1926 
     64 N         -80.9646   23.6175  -71.6018 N.am      2 UNK        -0.4687 
     65 C         -79.7894   23.2017  -72.0989 C.2       1 UNK         0.5165 
     66 O         -79.6441   22.8133  -73.2621 O.2       1 UNK        -0.5079 
     67 H67       -76.1266   20.4467  -73.5607 H         1 UNK         0.0900 
     68 H68       -75.2995   21.8933  -72.9818 H         1 UNK         0.0900 
     69 H69       -75.2129   20.3971  -72.0497 H         1 UNK         0.0900 
     70 H70       -76.7574   23.3764  -72.1583 H         1 UNK         0.2959 
     71 H71       -78.8448   22.6262  -70.2792 H         1 UNK         0.1079 
     72 H72       -77.4930   24.6504  -69.8709 H         1 UNK         0.0837 
     73 H73       -79.1701   25.0518  -70.0307 H         1 UNK         0.0837 
     74 H74       -79.9954   26.9258  -71.5230 H         1 UNK         0.0685 
     75 H75       -78.7714   27.6066  -70.4694 H         1 UNK         0.0685 
     76 H76       -80.6264   28.1473  -73.4661 H         1 UNK         0.1434 
     77 H77       -78.2045   31.3818  -74.9095 H         1 UNK         0.1329 
     78 H78       -76.8207   28.9490  -71.6593 H         1 UNK         0.1335 
     79 H79       -75.8229   31.2380  -72.1605 H         1 UNK         0.0680 
     80 H80       -76.2396   32.0493  -73.6530 H         1 UNK         0.0680 
     81 H81       -73.0585   31.3484  -72.7197 H         1 UNK         0.1032 
     82 H82       -73.7899   32.4120  -73.8919 H         1 UNK         0.1032 
     83 H83       -72.5556   31.2393  -75.7347 H         1 UNK         0.0461 
     84 H84       -69.5571   31.2383  -75.2102 H         1 UNK         0.3453 
     85 H85       -69.2242   32.9367  -74.9737 H         1 UNK         0.3453 
     86 H86       -71.6754   29.2568  -75.4024 H         1 UNK         0.2984 
     87 H87       -69.6103   28.0055  -74.4950 H         1 UNK         0.0554 
     88 H88       -68.6833   28.2457  -72.2063 H         1 UNK         0.0847 
     89 H89       -69.0578   26.5636  -72.5411 H         1 UNK         0.0847 
     90 H90       -70.1245   27.5187  -71.5125 H         1 UNK         0.0847 
     91 H91       -71.1517   26.4391  -74.8302 H         1 UNK         0.3141 
     92 H92       -72.7307   24.6080  -73.7551 H         1 UNK         0.0743 
     93 H93       -75.2089   24.5331  -73.5442 H         1 UNK         0.0784 
     94 H94       -74.4708   25.1654  -72.0807 H         1 UNK         0.0784 
     95 H95       -75.2396   26.2647  -73.2201 H         1 UNK         0.0784 
     96 H96       -74.5186   26.0020  -75.5590 H         1 UNK         0.3213 
     97 H97       -72.2600   25.8760  -78.3562 H         1 UNK         0.0855 
     98 H98       -74.9535   24.5331  -77.7536 H         1 UNK         0.0814 
     99 H99       -73.4919   23.6936  -78.2544 H         1 UNK         0.0814 
    100 H100      -74.2703   24.8211  -79.3528 H         1 UNK         0.0814 
    101 H101      -74.8352   27.0059  -78.2080 H         1 UNK         0.3105 
    102 H102      -74.0431   30.2510  -77.0512 H         1 UNK         0.0547 
    103 H103      -73.3962   30.3030  -79.4140 H         1 UNK         0.0837 
    104 H104      -74.7049   29.2220  -79.8530 H         1 UNK         0.0837 
    105 H105      -75.0599   30.8370  -79.2412 H         1 UNK         0.0837 
    106 H106      -75.9775   29.5998  -76.3086 H         1 UNK         0.3020 
    107 H107      -77.7630   28.4335  -75.8681 H         1 UNK         0.1245 
    108 H108      -78.8237   30.0600  -77.4565 H         1 UNK         0.0781 
    109 H109      -79.2779   28.7564  -78.5216 H         1 UNK         0.0781 
    110 H110      -81.5642   30.2056  -74.8467 H         1 UNK         0.0836 
    111 H111      -80.4056   31.0745  -75.8206 H         1 UNK         0.0836 
    112 H112      -79.2101   26.4511  -77.2566 H         1 UNK         0.3022 
    113 H113      -78.1306   23.9819  -77.3583 H         1 UNK         0.0747 
    114 H114      -76.3404   23.2584  -75.8303 H         1 UNK         0.0793 
    115 H115      -77.3405   23.6224  -74.4321 H         1 UNK         0.0793 
    116 H116      -77.7888   22.3124  -75.5230 H         1 UNK         0.0793 
    117 H117      -79.7839   23.8485  -74.9899 H         1 UNK         0.3047 
    118 H118      -82.5126   25.4907  -76.0612 H         1 UNK         0.0822 
    119 H119      -83.9627   23.5650  -76.7155 H         1 UNK         0.0807 
    120 H120      -82.5370   22.6335  -77.1759 H         1 UNK         0.0807 
    121 H121      -82.9674   24.0907  -78.0601 H         1 UNK         0.0807 
    122 H122      -82.1966   22.8760  -74.7409 H         1 UNK         0.2946 
    123 H123      -82.9280   24.2576  -71.6813 H         1 UNK         0.1144 
    124 H124      -83.7860   22.3502  -73.0730 H         1 UNK         0.0793 
    125 H125      -83.0205   21.8052  -71.5948 H         1 UNK         0.0793 
    126 H126      -82.1672   21.6526  -73.1222 H         1 UNK         0.0793 
    127 H127      -80.9895   23.9467  -70.6469 H         1 UNK         0.2896 
@<TRIPOS>BOND
     1    1    2 1    
     2    1   67 1    
     3    1   68 1    
     4    1   69 1    
     5    2    3 2    
     6    2    4 am   BACKBONE|DICT|INTERRES
     7    4    5 1    
     8    4   70 1    
     9    5    6 1    
    10    5   65 1    
    11    5   71 1    
    12    6    7 1    
    13    6   72 1    
    14    6   73 1    
    15    7    8 1    
    16    8    9 1    
    17    8   74 1    
    18    8   75 1    
    19    9   10 ar   
    20    9   14 ar   
    21   10   11 ar   
    22   10   76 1    
    23   11   12 ar   
    24   11   48 1    
    25   12   13 ar   
    26   12   77 1    
    27   13   14 ar   
    28   13   15 1    
    29   14   78 1    
    30   15   16 1    
    31   15   79 1    
    32   15   80 1    
    33   16   17 1    
    34   17   18 1    
    35   17   81 1    
    36   17   82 1    
    37   18   19 1    
    38   18   22 1    
    39   18   83 1    
    40   19   20 am   BACKBONE|DICT|INTERRES
    41   19   21 2    
    42   20   84 1    
    43   20   85 1    
    44   22   23 am   BACKBONE|DICT|INTERRES
    45   22   86 1    
    46   23   24 2    
    47   23   25 1    
    48   25   26 1    
    49   25   27 1    
    50   25   87 1    
    51   26   88 1    
    52   26   89 1    
    53   26   90 1    
    54   27   28 am   BACKBONE|DICT|INTERRES
    55   27   91 1    
    56   28   29 2    
    57   28   30 1    
    58   30   31 1    
    59   30   32 1    
    60   30   92 1    
    61   31   93 1    
    62   31   94 1    
    63   31   95 1    
    64   32   33 am   BACKBONE|DICT|INTERRES
    65   32   96 1    
    66   33   34 2    
    67   33   35 1    
    68   35   36 1    
    69   35   37 1    
    70   35   97 1    
    71   36   98 1    
    72   36   99 1    
    73   36  100 1    
    74   37   38 am   BACKBONE|DICT|INTERRES
    75   37  101 1    
    76   38   39 2    
    77   38   40 1    
    78   40   41 1    
    79   40   42 1    
    80   40  102 1    
    81   41  103 1    
    82   41  104 1    
    83   41  105 1    
    84   42   43 am   BACKBONE|DICT|INTERRES
    85   42  106 1    
    86   43   44 2    
    87   43   45 1    
    88   45   46 1    
    89   45   49 1    
    90   45  107 1    
    91   46   47 1    
    92   46  108 1    
    93   46  109 1    
    94   47   48 1    
    95   48  110 1    
    96   48  111 1    
    97   49   50 am   BACKBONE|DICT|INTERRES
    98   49  112 1    
    99   50   51 2    
   100   50   52 1    
   101   52   53 1    
   102   52   54 1    
   103   52  113 1    
   104   53  114 1    
   105   53  115 1    
   106   53  116 1    
   107   54   55 am   BACKBONE|DICT|INTERRES
   108   54  117 1    
   109   55   56 2    
   110   55   57 1    
   111   57   58 1    
   112   57   59 1    
   113   57  118 1    
   114   58  119 1    
   115   58  120 1    
   116   58  121 1    
   117   59   60 am   BACKBONE|DICT|INTERRES
   118   59  122 1    
   119   60   61 2    
   120   60   62 1    
   121   62   63 1    
   122   62   64 1    
   123   62  123 1    
   124   63  124 1    
   125   63  125 1    
   126   63  126 1    
   127   64   65 am   BACKBONE|DICT|INTERRES
   128   64  127 1    
   129   65   66 2    
@<TRIPOS>SUBSTRUCTURE
     1 UNK         1 GROUP             0       ****    0 ROOT    
