@<TRIPOS>MOLECULE
3R135
127   129    1
SMALL
USER_CHARGES


@<TRIPOS>ATOM
      1 CA        -83.3155   25.2477  -74.1429 C.3       0 UNK        -0.1998 
      2 C         -82.7438   26.6353  -74.3911 C.2       0 UNK         0.4909 
      3 O         -82.6474   27.0618  -75.5412 O.2       0 UNK        -0.5240 
      4 N         -82.3325   27.3311  -73.3228 N.am      1 UNK        -0.4739 
      5 CA        -81.7864   28.6998  -73.3227 C.3       1 UNK         0.0864 
      6 C6        -81.9169   29.3751  -71.9289 C.3       11 UNK        -0.0881 
      7 S7        -81.4143   28.3324  -70.5135 S.3       11 UNK        -0.2682 
      8 C8        -79.8087   29.0491  -70.0218 C.3       11 UNK         0.0289 
      9 C9        -78.6199   28.4573  -70.7734 C.ar      11 UNK        -0.0687 
     10 C10       -78.4931   27.0737  -70.9319 C.ar      11 UNK        -0.0823 
     11 C11       -77.3873   26.5185  -71.5826 C.ar      11 UNK        -0.0830 
     12 C12       -76.3822   27.3707  -72.0587 C.ar      11 UNK        -0.1021 
     13 C13       -76.4958   28.7558  -71.9121 C.ar      11 UNK        -0.0753 
     14 C14       -77.6168   29.2932  -71.2719 C.ar      11 UNK        -0.0933 
     15 C15       -75.4082   29.6741  -72.4468 C.3       11 UNK         0.0166 
     16 S16       -75.6527   30.0085  -74.2181 S.3       11 UNK        -0.2615 
     17 C17       -74.7418   31.5768  -74.4271 C.3       11 UNK        -0.0865 
     18 CA        -73.4254   31.4213  -75.2414 C.3       10 UNK         0.0862 
     19 C         -72.7965   32.7948  -75.6315 C.2       10 UNK         0.5551 
     20 N         -71.4780   32.9127  -75.7351 N.am      10 UNK        -0.7319 
     21 O         -73.5113   33.7642  -75.8756 O.2       10 UNK        -0.5018 
     22 N         -72.4753   30.4600  -74.6506 N.am      10 UNK        -0.4509 
     23 C         -71.8811   30.5590  -73.4506 C.2       10 UNK         0.4899 
     24 O         -72.0978   31.4778  -72.6597 O.2       10 UNK        -0.4839 
     25 CA        -70.8313   29.4901  -73.0729 C.3       9 UNK         0.0222 
     26 CB        -70.9392   29.0571  -71.5943 C.3       9 UNK        -0.1966 
     27 N         -70.7950   28.3353  -73.9815 N.am      9 UNK        -0.4218 
     28 C         -71.7245   27.3805  -74.1222 C.2       9 UNK         0.5020 
     29 O         -72.7179   27.2520  -73.4040 O.2       9 UNK        -0.5274 
     30 CA        -71.5282   26.4284  -75.3132 C.3       8 UNK         0.0270 
     31 CB        -71.0966   25.0325  -74.8383 C.3       8 UNK        -0.1976 
     32 N         -72.7623   26.3450  -76.0997 N.am      8 UNK        -0.4313 
     33 C         -73.2868   27.3883  -76.7642 C.2       8 UNK         0.5041 
     34 O         -72.6958   28.4647  -76.8840 O.2       8 UNK        -0.5577 
     35 CA        -74.7061   27.2446  -77.3516 C.3       7 UNK         0.0284 
     36 CB        -74.9052   28.0695  -78.6402 C.3       7 UNK        -0.1958 
     37 N         -75.1573   25.8612  -77.5323 N.am      7 UNK        -0.4454 
     38 C         -74.6435   24.9220  -78.3418 C.2       7 UNK         0.5089 
     39 O         -73.7211   25.1231  -79.1329 O.2       7 UNK        -0.5125 
     40 CA        -75.2526   23.5077  -78.2047 C.3       6 UNK         0.0408 
     41 CB        -74.3359   22.4030  -78.7698 C.3       6 UNK        -0.1791 
     42 N         -75.6549   23.1957  -76.8251 N.am      6 UNK        -0.4762 
     43 C         -74.8703   23.2289  -75.7325 C.2       6 UNK         0.5007 
     44 O         -73.6550   23.4100  -75.7883 O.2       6 UNK        -0.5032 
     45 CA        -75.5410   23.1294  -74.3465 C.3       5 UNK         0.0783 
     46 C46       -75.1717   24.3722  -73.4934 C.3       11 UNK        -0.0857 
     47 S47       -75.7047   24.2311  -71.7543 S.3       11 UNK        -0.2512 
     48 C48       -77.3571   25.0055  -71.7901 C.3       11 UNK         0.0225 
     49 N         -76.9930   23.0184  -74.4890 N.am      5 UNK        -0.4615 
     50 C         -77.7241   21.9173  -74.2879 C.2       4 UNK         0.5053 
     51 O         -77.2538   20.8367  -73.9332 O.2       4 UNK        -0.5105 
     52 CA        -79.2435   22.0393  -74.5255 C.3       4 UNK         0.0263 
     53 CB        -79.9908   22.1335  -73.1848 C.3       4 UNK        -0.1981 
     54 N         -79.6281   23.1807  -75.3654 N.am      4 UNK        -0.4224 
     55 C         -79.3120   23.3206  -76.6606 C.2       3 UNK         0.4895 
     56 O         -78.6652   22.4920  -77.3008 O.2       3 UNK        -0.5091 
     57 CA        -79.7303   24.6339  -77.3410 C.3       3 UNK         0.0250 
     58 CB        -81.1631   24.5250  -77.8863 C.3       3 UNK        -0.1996 
     59 N         -79.6194   25.8309  -76.4973 N.am      3 UNK        -0.4254 
     60 C         -78.4997   26.2610  -75.8917 C.2       2 UNK         0.5004 
     61 O         -77.4505   25.6183  -75.8482 O.2       2 UNK        -0.5226 
     62 CA        -78.5680   27.6399  -75.2292 C.3       2 UNK         0.0269 
     63 CB        -78.4136   28.7179  -76.3258 C.3       2 UNK        -0.1926 
     64 N         -79.8321   27.7594  -74.4984 N.am      2 UNK        -0.4687 
     65 C         -80.3695   28.8465  -73.9314 C.2       1 UNK         0.5165 
     66 O         -79.8189   29.9476  -73.8999 O.2       1 UNK        -0.5079 
     67 H67       -84.3393   25.1950  -74.5122 H         1 UNK         0.0900 
     68 H68       -82.7268   24.4954  -74.6661 H         1 UNK         0.0900 
     69 H69       -83.3251   24.9943  -73.0829 H         1 UNK         0.0900 
     70 H70       -82.4117   26.9200  -72.4023 H         1 UNK         0.2959 
     71 H71       -82.4177   29.2781  -74.0013 H         1 UNK         0.1079 
     72 H72       -82.9669   29.6229  -71.7663 H         1 UNK         0.0837 
     73 H73       -81.3997   30.3356  -71.8926 H         1 UNK         0.0837 
     74 H74       -79.6619   28.8569  -68.9584 H         1 UNK         0.0685 
     75 H75       -79.8435   30.1340  -70.1314 H         1 UNK         0.0685 
     76 H76       -79.2690   26.4245  -70.5498 H         1 UNK         0.1434 
     77 H77       -75.5096   26.9750  -72.5569 H         1 UNK         0.1329 
     78 H78       -77.7044   30.3650  -71.1585 H         1 UNK         0.1335 
     79 H79       -75.4083   30.6085  -71.8842 H         1 UNK         0.0680 
     80 H80       -74.4260   29.2231  -72.2978 H         1 UNK         0.0680 
     81 H81       -75.4220   32.2588  -74.9401 H         1 UNK         0.1032 
     82 H82       -74.5446   32.0393  -73.4596 H         1 UNK         0.1032 
     83 H83       -73.7036   30.9802  -76.1991 H         1 UNK         0.0461 
     84 H84       -71.0792   33.8002  -75.9979 H         1 UNK         0.3453 
     85 H85       -70.8808   32.1218  -75.5560 H         1 UNK         0.3453 
     86 H86       -72.2608   29.6687  -75.2479 H         1 UNK         0.2984 
     87 H87       -69.8635   29.9794  -73.1917 H         1 UNK         0.0554 
     88 H88       -70.7694   29.9029  -70.9270 H         1 UNK         0.0847 
     89 H89       -70.1984   28.2973  -71.3461 H         1 UNK         0.0847 
     90 H90       -71.9252   28.6566  -71.3573 H         1 UNK         0.0847 
     91 H91       -70.0241   28.3353  -74.6362 H         1 UNK         0.3141 
     92 H92       -70.7455   26.8198  -75.9668 H         1 UNK         0.0743 
     93 H93       -71.8185   24.5977  -74.1470 H         1 UNK         0.0784 
     94 H94       -70.9791   24.3455  -75.6767 H         1 UNK         0.0784 
     95 H95       -70.1388   25.0781  -74.3186 H         1 UNK         0.0784 
     96 H96       -73.2785   25.4748  -76.0436 H         1 UNK         0.3213 
     97 H97       -75.3643   27.6661  -76.5909 H         1 UNK         0.0855 
     98 H98       -74.2182   27.7603  -79.4282 H         1 UNK         0.0814 
     99 H99       -74.7303   29.1303  -78.4557 H         1 UNK         0.0814 
    100 H100      -75.9215   27.9725  -79.0214 H         1 UNK         0.0814 
    101 H101      -75.9287   25.5863  -76.9261 H         1 UNK         0.3105 
    102 H102      -76.1699   23.5126  -78.7951 H         1 UNK         0.0547 
    103 H103      -74.7921   21.4185  -78.6678 H         1 UNK         0.0837 
    104 H104      -73.3697   22.3796  -78.2649 H         1 UNK         0.0837 
    105 H105      -74.1427   22.5606  -79.8315 H         1 UNK         0.0837 
    106 H106      -76.6444   23.0186  -76.6960 H         1 UNK         0.3020 
    107 H107      -75.1347   22.2376  -73.8640 H         1 UNK         0.1245 
    108 H108      -75.5863   25.2758  -73.9415 H         1 UNK         0.0781 
    109 H109      -74.0914   24.5226  -73.4680 H         1 UNK         0.0781 
    110 H110      -77.9491   24.5194  -71.0131 H         1 UNK         0.0836 
    111 H111      -77.8584   24.7832  -72.7303 H         1 UNK         0.0836 
    112 H112      -77.4513   23.8597  -74.8205 H         1 UNK         0.3022 
    113 H113      -79.5640   21.1274  -75.0338 H         1 UNK         0.0747 
    114 H114      -81.0712   22.1254  -73.3308 H         1 UNK         0.0793 
    115 H115      -79.7477   21.2861  -72.5421 H         1 UNK         0.0793 
    116 H116      -79.7319   23.0405  -72.6378 H         1 UNK         0.0793 
    117 H117      -80.1543   23.9169  -74.9205 H         1 UNK         0.3047 
    118 H118      -79.0572   24.7805  -78.1885 H         1 UNK         0.0822 
    119 H119      -81.4295   25.4001  -78.4793 H         1 UNK         0.0807 
    120 H120      -81.8965   24.4297  -77.0849 H         1 UNK         0.0807 
    121 H121      -81.2711   23.6532  -78.5335 H         1 UNK         0.0807 
    122 H122      -80.4253   26.4431  -76.4924 H         1 UNK         0.2946 
    123 H123      -77.7441   27.7232  -74.5189 H         1 UNK         0.1144 
    124 H124      -78.2369   29.7047  -75.8997 H         1 UNK         0.0793 
    125 H125      -79.2976   28.7808  -76.9611 H         1 UNK         0.0793 
    126 H126      -77.5628   28.5064  -76.9737 H         1 UNK         0.0793 
    127 H127      -80.3754   26.9113  -74.4317 H         1 UNK         0.2896 
@<TRIPOS>BOND
     1    1    2 1    
     2    1   67 1    
     3    1   68 1    
     4    1   69 1    
     5    2    3 2    
     6    2    4 am   BACKBONE|DICT|INTERRES
     7    4    5 1    
     8    4   70 1    
     9    5    6 1    
    10    5   65 1    
    11    5   71 1    
    12    6    7 1    
    13    6   72 1    
    14    6   73 1    
    15    7    8 1    
    16    8    9 1    
    17    8   74 1    
    18    8   75 1    
    19    9   10 ar   
    20    9   14 ar   
    21   10   11 ar   
    22   10   76 1    
    23   11   12 ar   
    24   11   48 1    
    25   12   13 ar   
    26   12   77 1    
    27   13   14 ar   
    28   13   15 1    
    29   14   78 1    
    30   15   16 1    
    31   15   79 1    
    32   15   80 1    
    33   16   17 1    
    34   17   18 1    
    35   17   81 1    
    36   17   82 1    
    37   18   19 1    
    38   18   22 1    
    39   18   83 1    
    40   19   20 am   BACKBONE|DICT|INTERRES
    41   19   21 2    
    42   20   84 1    
    43   20   85 1    
    44   22   23 am   BACKBONE|DICT|INTERRES
    45   22   86 1    
    46   23   24 2    
    47   23   25 1    
    48   25   26 1    
    49   25   27 1    
    50   25   87 1    
    51   26   88 1    
    52   26   89 1    
    53   26   90 1    
    54   27   28 am   BACKBONE|DICT|INTERRES
    55   27   91 1    
    56   28   29 2    
    57   28   30 1    
    58   30   31 1    
    59   30   32 1    
    60   30   92 1    
    61   31   93 1    
    62   31   94 1    
    63   31   95 1    
    64   32   33 am   BACKBONE|DICT|INTERRES
    65   32   96 1    
    66   33   34 2    
    67   33   35 1    
    68   35   36 1    
    69   35   37 1    
    70   35   97 1    
    71   36   98 1    
    72   36   99 1    
    73   36  100 1    
    74   37   38 am   BACKBONE|DICT|INTERRES
    75   37  101 1    
    76   38   39 2    
    77   38   40 1    
    78   40   41 1    
    79   40   42 1    
    80   40  102 1    
    81   41  103 1    
    82   41  104 1    
    83   41  105 1    
    84   42   43 am   BACKBONE|DICT|INTERRES
    85   42  106 1    
    86   43   44 2    
    87   43   45 1    
    88   45   46 1    
    89   45   49 1    
    90   45  107 1    
    91   46   47 1    
    92   46  108 1    
    93   46  109 1    
    94   47   48 1    
    95   48  110 1    
    96   48  111 1    
    97   49   50 am   BACKBONE|DICT|INTERRES
    98   49  112 1    
    99   50   51 2    
   100   50   52 1    
   101   52   53 1    
   102   52   54 1    
   103   52  113 1    
   104   53  114 1    
   105   53  115 1    
   106   53  116 1    
   107   54   55 am   BACKBONE|DICT|INTERRES
   108   54  117 1    
   109   55   56 2    
   110   55   57 1    
   111   57   58 1    
   112   57   59 1    
   113   57  118 1    
   114   58  119 1    
   115   58  120 1    
   116   58  121 1    
   117   59   60 am   BACKBONE|DICT|INTERRES
   118   59  122 1    
   119   60   61 2    
   120   60   62 1    
   121   62   63 1    
   122   62   64 1    
   123   62  123 1    
   124   63  124 1    
   125   63  125 1    
   126   63  126 1    
   127   64   65 am   BACKBONE|DICT|INTERRES
   128   64  127 1    
   129   65   66 2    
@<TRIPOS>SUBSTRUCTURE
     1 UNK         1 GROUP             0       ****    0 ROOT    
