@<TRIPOS>MOLECULE
3R135
127   129    1
SMALL
USER_CHARGES


@<TRIPOS>ATOM
      1 CA        -77.9553   26.2047  -68.7334 C.3       0 UNK        -0.1998 
      2 C         -79.1961   25.7903  -69.5079 C.2       0 UNK         0.4909 
      3 O         -79.8133   24.7747  -69.1830 O.2       0 UNK        -0.5240 
      4 N         -79.5730   26.5794  -70.5219 N.am      1 UNK        -0.4739 
      5 CA        -80.7052   26.3048  -71.4160 C.3       1 UNK         0.0864 
      6 C6        -81.0991   27.5505  -72.2468 C.3       11 UNK        -0.0881 
      7 S7        -81.6900   28.9023  -71.1728 S.3       11 UNK        -0.2682 
      8 C8        -81.4594   30.3677  -72.2367 C.3       11 UNK         0.0289 
      9 C9        -80.0029   30.6753  -72.5787 C.ar      11 UNK        -0.0687 
     10 C10       -79.6756   31.1110  -73.8670 C.ar      11 UNK        -0.0823 
     11 C11       -78.3532   31.4165  -74.2054 C.ar      11 UNK        -0.0830 
     12 C12       -77.3509   31.2815  -73.2405 C.ar      11 UNK        -0.1021 
     13 C13       -77.6591   30.8273  -71.9562 C.ar      11 UNK        -0.0753 
     14 C14       -78.9876   30.5499  -71.6234 C.ar      11 UNK        -0.0933 
     15 C15       -76.5517   30.6091  -70.9368 C.3       11 UNK         0.0166 
     16 S16       -76.3109   28.8399  -70.5740 S.3       11 UNK        -0.2615 
     17 C17       -75.7398   28.1859  -72.1808 C.3       11 UNK        -0.0865 
     18 CA        -74.1984   27.9979  -72.2360 C.3       10 UNK         0.0862 
     19 C         -73.6955   26.6268  -71.6970 C.2       10 UNK         0.5551 
     20 N         -72.5795   26.1006  -72.1913 N.am      10 UNK        -0.7319 
     21 O         -74.3120   26.0293  -70.8193 O.2       10 UNK        -0.5018 
     22 N         -73.6734   28.2848  -73.5758 N.am      10 UNK        -0.4509 
     23 C         -73.1606   29.4518  -73.9788 C.2       10 UNK         0.4899 
     24 O         -73.1828   30.4757  -73.2947 O.2       10 UNK        -0.4839 
     25 CA        -72.5216   29.4925  -75.3862 C.3       9 UNK         0.0222 
     26 CB        -71.3170   30.4561  -75.4395 C.3       9 UNK        -0.1966 
     27 N         -72.1454   28.1829  -75.9526 N.am      9 UNK        -0.4218 
     28 C         -71.2992   27.2891  -75.4142 C.2       9 UNK         0.5020 
     29 O         -70.8228   27.4042  -74.2829 O.2       9 UNK        -0.5274 
     30 CA        -70.9358   26.0589  -76.2611 C.3       8 UNK         0.0270 
     31 CB        -70.1755   24.9871  -75.4461 C.3       8 UNK        -0.1976 
     32 N         -72.1133   25.4648  -76.8988 N.am      8 UNK        -0.4313 
     33 C         -72.0516   24.6491  -77.9617 C.2       8 UNK         0.5041 
     34 O         -71.0144   24.4083  -78.5819 O.2       8 UNK        -0.5577 
     35 CA        -73.3550   23.9637  -78.4000 C.3       7 UNK         0.0284 
     36 CB        -73.8027   22.9211  -77.3618 C.3       7 UNK        -0.1958 
     37 N         -74.4303   24.9207  -78.6554 N.am      7 UNK        -0.4454 
     38 C         -74.4820   25.7292  -79.7238 C.2       7 UNK         0.5089 
     39 O         -73.6398   25.7400  -80.6219 O.2       7 UNK        -0.5125 
     40 CA        -75.6803   26.6889  -79.8100 C.3       6 UNK         0.0408 
     41 CB        -76.8343   26.0441  -80.5943 C.3       6 UNK        -0.1791 
     42 N         -76.1594   27.1064  -78.4915 N.am      6 UNK        -0.4762 
     43 C         -75.5072   27.9651  -77.6936 C.2       6 UNK         0.5007 
     44 O         -74.4393   28.4998  -77.9929 O.2       6 UNK        -0.5032 
     45 CA        -76.1265   28.2177  -76.3035 C.3       5 UNK         0.0783 
     46 C46       -77.2784   29.2497  -76.3705 C.3       11 UNK        -0.0857 
     47 S47       -76.6407   30.9589  -76.3782 S.3       11 UNK        -0.2512 
     48 C48       -78.0155   31.8866  -75.6165 C.3       11 UNK         0.0225 
     49 N         -76.5463   26.9694  -75.6640 N.am      5 UNK        -0.4615 
     50 C         -75.7384   25.9437  -75.3596 C.2       4 UNK         0.5053 
     51 O         -74.5097   26.0001  -75.4375 O.2       4 UNK        -0.5105 
     52 CA        -76.4087   24.6200  -74.9479 C.3       4 UNK         0.0263 
     53 CB        -76.1582   24.3057  -73.4660 C.3       4 UNK        -0.1981 
     54 N         -77.8467   24.5694  -75.2408 N.am      4 UNK        -0.4224 
     55 C         -78.3641   24.5204  -76.4807 C.2       3 UNK         0.4895 
     56 O         -77.6612   24.5402  -77.4932 O.2       3 UNK        -0.5091 
     57 CA        -79.9012   24.5230  -76.6355 C.3       3 UNK         0.0250 
     58 CB        -80.3691   23.6516  -77.8206 C.3       3 UNK        -0.1996 
     59 N         -80.6391   24.1960  -75.4073 N.am      3 UNK        -0.4254 
     60 C         -80.6195   23.0403  -74.7255 C.2       2 UNK         0.5004 
     61 O         -80.0212   22.0318  -75.1039 O.2       2 UNK        -0.5226 
     62 CA        -81.3727   23.0235  -73.3762 C.3       2 UNK         0.0269 
     63 CB        -80.8208   21.9433  -72.4208 C.3       2 UNK        -0.1926 
     64 N         -81.4307   24.3184  -72.6714 N.am      2 UNK        -0.4687 
     65 C         -80.3947   25.1027  -72.3313 C.2       1 UNK         0.5165 
     66 O         -79.2424   24.9249  -72.7314 O.2       1 UNK        -0.5079 
     67 H67       -77.0565   25.9585  -69.2991 H         1 UNK         0.0900 
     68 H68       -77.9591   27.2765  -68.5369 H         1 UNK         0.0900 
     69 H69       -77.9075   25.6887  -67.7748 H         1 UNK         0.0900 
     70 H70       -79.0198   27.3923  -70.7519 H         1 UNK         0.2959 
     71 H71       -81.5565   26.0282  -70.7895 H         1 UNK         0.1079 
     72 H72       -81.8985   27.3144  -72.9519 H         1 UNK         0.0837 
     73 H73       -80.2519   27.8948  -72.8433 H         1 UNK         0.0837 
     74 H74       -82.0458   30.2256  -73.1459 H         1 UNK         0.0685 
     75 H75       -81.8833   31.2347  -71.7287 H         1 UNK         0.0685 
     76 H76       -80.4554   31.2159  -74.6092 H         1 UNK         0.1434 
     77 H77       -76.3241   31.5035  -73.4995 H         1 UNK         0.1329 
     78 H78       -79.2236   30.2127  -70.6236 H         1 UNK         0.1335 
     79 H79       -75.6080   31.0332  -71.2845 H         1 UNK         0.0680 
     80 H80       -76.8043   31.1305  -70.0126 H         1 UNK         0.0680 
     81 H81       -76.2611   27.2507  -72.3821 H         1 UNK         0.1032 
     82 H82       -76.0668   28.8612  -72.9706 H         1 UNK         0.1032 
     83 H83       -73.7482   28.7200  -71.5522 H         1 UNK         0.0461 
     84 H84       -72.0170   26.6063  -72.8673 H         1 UNK         0.3453 
     85 H85       -72.2580   25.2154  -71.8344 H         1 UNK         0.3453 
     86 H86       -73.6197   27.4854  -74.1971 H         1 UNK         0.2984 
     87 H87       -73.2866   29.9025  -76.0458 H         1 UNK         0.0554 
     88 H88       -71.6091   31.4698  -75.1626 H         1 UNK         0.0847 
     89 H89       -70.8943   30.5086  -76.4427 H         1 UNK         0.0847 
     90 H90       -70.5243   30.1485  -74.7565 H         1 UNK         0.0847 
     91 H91       -72.5377   27.9865  -76.8665 H         1 UNK         0.3141 
     92 H92       -70.2680   26.4267  -77.0430 H         1 UNK         0.0743 
     93 H93       -70.7979   24.5762  -74.6503 H         1 UNK         0.0784 
     94 H94       -69.8463   24.1593  -76.0738 H         1 UNK         0.0784 
     95 H95       -69.2810   25.4043  -74.9816 H         1 UNK         0.0784 
     96 H96       -73.0068   25.6209  -76.4319 H         1 UNK         0.3213 
     97 H97       -73.1557   23.4325  -79.3337 H         1 UNK         0.0855 
     98 H98       -73.8897   23.3483  -76.3634 H         1 UNK         0.0814 
     99 H99       -73.0755   22.1108  -77.2964 H         1 UNK         0.0814 
    100 H100      -74.7614   22.4747  -77.6271 H         1 UNK         0.0814 
    101 H101      -75.1872   24.9654  -77.9880 H         1 UNK         0.3105 
    102 H102      -75.3565   27.5783  -80.3551 H         1 UNK         0.0547 
    103 H103      -76.5115   25.7599  -81.5968 H         1 UNK         0.0837 
    104 H104      -77.2044   25.1423  -80.1051 H         1 UNK         0.0837 
    105 H105      -77.6716   26.7325  -80.7080 H         1 UNK         0.0837 
    106 H106      -76.9926   26.6464  -78.1475 H         1 UNK         0.3020 
    107 H107      -75.3407   28.6289  -75.6737 H         1 UNK         0.1245 
    108 H108      -77.9238   29.1302  -75.4998 H         1 UNK         0.0781 
    109 H109      -77.9221   29.0954  -77.2389 H         1 UNK         0.0781 
    110 H110      -78.8862   31.8134  -76.2700 H         1 UNK         0.0836 
    111 H111      -77.7477   32.9433  -75.5787 H         1 UNK         0.0836 
    112 H112      -77.5389   26.8334  -75.5471 H         1 UNK         0.3022 
    113 H113      -75.9384   23.8295  -75.5324 H         1 UNK         0.0747 
    114 H114      -76.6169   25.0419  -72.8077 H         1 UNK         0.0793 
    115 H115      -76.5595   23.3285  -73.1973 H         1 UNK         0.0793 
    116 H116      -75.0903   24.2884  -73.2439 H         1 UNK         0.0793 
    117 H117      -78.4697   24.5822  -74.4356 H         1 UNK         0.3047 
    118 H118      -80.1660   25.5547  -76.8713 H         1 UNK         0.0822 
    119 H119      -81.4531   23.6785  -77.9304 H         1 UNK         0.0807 
    120 H120      -80.0687   22.6101  -77.7030 H         1 UNK         0.0807 
    121 H121      -79.9419   24.0052  -78.7600 H         1 UNK         0.0807 
    122 H122      -81.1622   24.9579  -74.9989 H         1 UNK         0.2946 
    123 H123      -82.4024   22.7547  -73.6182 H         1 UNK         0.1144 
    124 H124      -81.3807   21.9160  -71.4860 H         1 UNK         0.0793 
    125 H125      -79.7724   22.1211  -72.1774 H         1 UNK         0.0793 
    126 H126      -80.8894   20.9491  -72.8642 H         1 UNK         0.0793 
    127 H127      -82.3488   24.5786  -72.3362 H         1 UNK         0.2896 
@<TRIPOS>BOND
     1    1    2 1    
     2    1   67 1    
     3    1   68 1    
     4    1   69 1    
     5    2    3 2    
     6    2    4 am   BACKBONE|DICT|INTERRES
     7    4    5 1    
     8    4   70 1    
     9    5    6 1    
    10    5   65 1    
    11    5   71 1    
    12    6    7 1    
    13    6   72 1    
    14    6   73 1    
    15    7    8 1    
    16    8    9 1    
    17    8   74 1    
    18    8   75 1    
    19    9   10 ar   
    20    9   14 ar   
    21   10   11 ar   
    22   10   76 1    
    23   11   12 ar   
    24   11   48 1    
    25   12   13 ar   
    26   12   77 1    
    27   13   14 ar   
    28   13   15 1    
    29   14   78 1    
    30   15   16 1    
    31   15   79 1    
    32   15   80 1    
    33   16   17 1    
    34   17   18 1    
    35   17   81 1    
    36   17   82 1    
    37   18   19 1    
    38   18   22 1    
    39   18   83 1    
    40   19   20 am   BACKBONE|DICT|INTERRES
    41   19   21 2    
    42   20   84 1    
    43   20   85 1    
    44   22   23 am   BACKBONE|DICT|INTERRES
    45   22   86 1    
    46   23   24 2    
    47   23   25 1    
    48   25   26 1    
    49   25   27 1    
    50   25   87 1    
    51   26   88 1    
    52   26   89 1    
    53   26   90 1    
    54   27   28 am   BACKBONE|DICT|INTERRES
    55   27   91 1    
    56   28   29 2    
    57   28   30 1    
    58   30   31 1    
    59   30   32 1    
    60   30   92 1    
    61   31   93 1    
    62   31   94 1    
    63   31   95 1    
    64   32   33 am   BACKBONE|DICT|INTERRES
    65   32   96 1    
    66   33   34 2    
    67   33   35 1    
    68   35   36 1    
    69   35   37 1    
    70   35   97 1    
    71   36   98 1    
    72   36   99 1    
    73   36  100 1    
    74   37   38 am   BACKBONE|DICT|INTERRES
    75   37  101 1    
    76   38   39 2    
    77   38   40 1    
    78   40   41 1    
    79   40   42 1    
    80   40  102 1    
    81   41  103 1    
    82   41  104 1    
    83   41  105 1    
    84   42   43 am   BACKBONE|DICT|INTERRES
    85   42  106 1    
    86   43   44 2    
    87   43   45 1    
    88   45   46 1    
    89   45   49 1    
    90   45  107 1    
    91   46   47 1    
    92   46  108 1    
    93   46  109 1    
    94   47   48 1    
    95   48  110 1    
    96   48  111 1    
    97   49   50 am   BACKBONE|DICT|INTERRES
    98   49  112 1    
    99   50   51 2    
   100   50   52 1    
   101   52   53 1    
   102   52   54 1    
   103   52  113 1    
   104   53  114 1    
   105   53  115 1    
   106   53  116 1    
   107   54   55 am   BACKBONE|DICT|INTERRES
   108   54  117 1    
   109   55   56 2    
   110   55   57 1    
   111   57   58 1    
   112   57   59 1    
   113   57  118 1    
   114   58  119 1    
   115   58  120 1    
   116   58  121 1    
   117   59   60 am   BACKBONE|DICT|INTERRES
   118   59  122 1    
   119   60   61 2    
   120   60   62 1    
   121   62   63 1    
   122   62   64 1    
   123   62  123 1    
   124   63  124 1    
   125   63  125 1    
   126   63  126 1    
   127   64   65 am   BACKBONE|DICT|INTERRES
   128   64  127 1    
   129   65   66 2    
@<TRIPOS>SUBSTRUCTURE
     1 UNK         1 GROUP             0       ****    0 ROOT    
