@<TRIPOS>MOLECULE
3R135
127   129    1
SMALL
USER_CHARGES


@<TRIPOS>ATOM
      1 CA        -81.9468   21.7327  -72.9371 C.3       0 UNK        -0.1998 
      2 C         -81.3219   23.1186  -72.8930 C.2       0 UNK         0.4909 
      3 O         -80.1341   23.2583  -73.1802 O.2       0 UNK        -0.5240 
      4 N         -82.1203   24.1392  -72.5494 N.am      1 UNK        -0.4739 
      5 CA        -81.7371   25.5517  -72.4137 C.3       1 UNK         0.0864 
      6 C6        -80.8722   25.8191  -71.1493 C.3       11 UNK        -0.0881 
      7 S7        -81.3023   27.4151  -70.3797 S.3       11 UNK        -0.2682 
      8 C8        -79.6979   27.9563  -69.7005 C.3       11 UNK         0.0289 
      9 C9        -78.7550   28.6258  -70.7010 C.ar      11 UNK        -0.0687 
     10 C10       -79.2277   29.3828  -71.7823 C.ar      11 UNK        -0.0823 
     11 C11       -78.3401   30.0496  -72.6345 C.ar      11 UNK        -0.0830 
     12 C12       -76.9663   29.9580  -72.3944 C.ar      11 UNK        -0.1021 
     13 C13       -76.4789   29.2105  -71.3196 C.ar      11 UNK        -0.0753 
     14 C14       -77.3763   28.5446  -70.4813 C.ar      11 UNK        -0.0933 
     15 C15       -74.9827   29.1367  -71.0643 C.3       11 UNK         0.0166 
     16 S16       -74.3155   30.7638  -70.5892 S.3       11 UNK        -0.2615 
     17 C17       -72.5226   30.4272  -70.5374 C.3       11 UNK        -0.0865 
     18 CA        -71.7607   31.0094  -71.7673 C.3       10 UNK         0.0862 
     19 C         -70.2112   30.9660  -71.5852 C.2       10 UNK         0.5551 
     20 N         -69.4267   30.7611  -72.6363 N.am      10 UNK        -0.7319 
     21 O         -69.7067   31.1568  -70.4810 O.2       10 UNK        -0.5018 
     22 N         -72.2489   30.4825  -73.0584 N.am      10 UNK        -0.4509 
     23 C         -72.2002   29.2027  -73.4511 C.2       10 UNK         0.4899 
     24 O         -71.7380   28.2970  -72.7534 O.2       10 UNK        -0.4839 
     25 CA        -72.8293   28.8898  -74.8260 C.3       9 UNK         0.0222 
     26 CB        -72.2834   29.7985  -75.9497 C.3       9 UNK        -0.1966 
     27 N         -72.7175   27.4706  -75.1884 N.am      9 UNK        -0.4218 
     28 C         -71.5935   26.7777  -75.4295 C.2       9 UNK         0.5020 
     29 O         -70.4706   27.2761  -75.5276 O.2       9 UNK        -0.5274 
     30 CA        -71.7449   25.2603  -75.5755 C.3       8 UNK         0.0270 
     31 CB        -72.0120   24.6028  -74.2094 C.3       8 UNK        -0.1976 
     32 N         -72.8217   24.9152  -76.5056 N.am      8 UNK        -0.4313 
     33 C         -72.6198   24.3747  -77.7135 C.2       8 UNK         0.5041 
     34 O         -71.5062   24.1701  -78.2001 O.2       8 UNK        -0.5577 
     35 CA        -73.8605   23.9462  -78.5076 C.3       7 UNK         0.0284 
     36 CB        -74.3497   22.5705  -78.0252 C.3       7 UNK        -0.1958 
     37 N         -74.9610   24.9107  -78.4548 N.am      7 UNK        -0.4454 
     38 C         -74.9972   26.0390  -79.1770 C.2       7 UNK         0.5089 
     39 O         -74.0566   26.4463  -79.8599 O.2       7 UNK        -0.5125 
     40 CA        -76.3211   26.8212  -79.1838 C.3       6 UNK         0.0408 
     41 CB        -77.3784   26.0902  -80.0272 C.3       6 UNK        -0.1791 
     42 N         -76.8509   27.0599  -77.8438 N.am      6 UNK        -0.4762 
     43 C         -76.3517   27.9536  -76.9790 C.2       6 UNK         0.5007 
     44 O         -75.3941   28.6861  -77.2262 O.2       6 UNK        -0.5032 
     45 CA        -77.0306   28.0238  -75.5952 C.3       5 UNK         0.0783 
     46 C46       -78.3344   28.8627  -75.6522 C.3       11 UNK        -0.0857 
     47 S47       -78.0222   30.6344  -75.3701 S.3       11 UNK        -0.2512 
     48 C48       -78.8776   30.9060  -73.7791 C.3       11 UNK         0.0225 
     49 N         -77.2609   26.6963  -75.0185 N.am      5 UNK        -0.4615 
     50 C         -76.3108   25.7798  -74.7853 C.2       4 UNK         0.5053 
     51 O         -75.1096   25.9600  -74.9920 O.2       4 UNK        -0.5105 
     52 CA        -76.7862   24.4083  -74.2838 C.3       4 UNK         0.0263 
     53 CB        -77.0222   24.4447  -72.7664 C.3       4 UNK        -0.1981 
     54 N         -77.9990   23.9512  -74.9691 N.am      4 UNK        -0.4224 
     55 C         -78.0740   23.7035  -76.2862 C.2       3 UNK         0.4895 
     56 O         -77.1167   23.7805  -77.0539 O.2       3 UNK        -0.5091 
     57 CA        -79.4590   23.3791  -76.8626 C.3       3 UNK         0.0250 
     58 CB        -79.8932   21.9487  -76.5055 C.3       3 UNK        -0.1996 
     59 N         -80.4691   24.3450  -76.4287 N.am      3 UNK        -0.4254 
     60 C         -80.4655   25.6442  -76.7639 C.2       2 UNK         0.5004 
     61 O         -79.6365   26.1578  -77.5146 O.2       2 UNK        -0.5226 
     62 CA        -81.5524   26.5300  -76.1323 C.3       2 UNK         0.0269 
     63 CB        -82.7933   26.5875  -77.0368 C.3       2 UNK        -0.1926 
     64 N         -81.9460   26.0975  -74.7876 N.am      2 UNK        -0.4687 
     65 C         -81.1325   26.1086  -73.7212 C.2       1 UNK         0.5165 
     66 O         -79.9565   26.4725  -73.7724 O.2       1 UNK        -0.5079 
     67 H67       -82.9662   21.7323  -72.5519 H         1 UNK         0.0900 
     68 H68       -81.9699   21.3619  -73.9612 H         1 UNK         0.0900 
     69 H69       -81.3590   21.0389  -72.3366 H         1 UNK         0.0900 
     70 H70       -83.0908   23.9426  -72.3453 H         1 UNK         0.2959 
     71 H71       -82.6858   26.0760  -72.2847 H         1 UNK         0.1079 
     72 H72       -79.8027   25.7637  -71.3571 H         1 UNK         0.0837 
     73 H73       -81.0591   25.0524  -70.3959 H         1 UNK         0.0837 
     74 H74       -79.8944   28.6699  -68.8995 H         1 UNK         0.0685 
     75 H75       -79.2113   27.0988  -69.2325 H         1 UNK         0.0685 
     76 H76       -80.2913   29.4732  -71.9509 H         1 UNK         0.1434 
     77 H77       -76.2715   30.4846  -73.0343 H         1 UNK         0.1329 
     78 H78       -77.0008   27.9785  -69.6397 H         1 UNK         0.1335 
     79 H79       -74.4962   28.7765  -71.9687 H         1 UNK         0.0680 
     80 H80       -74.7547   28.4133  -70.2800 H         1 UNK         0.0680 
     81 H81       -72.3426   29.3563  -70.4341 H         1 UNK         0.1032 
     82 H82       -72.1494   30.8758  -69.6150 H         1 UNK         0.1032 
     83 H83       -71.9884   32.0755  -71.7998 H         1 UNK         0.0461 
     84 H84       -69.8269   30.6028  -73.5469 H         1 UNK         0.3453 
     85 H85       -68.4267   30.7465  -72.5124 H         1 UNK         0.3453 
     86 H86       -72.6503   31.1687  -73.6805 H         1 UNK         0.2984 
     87 H87       -73.8981   29.0836  -74.7288 H         1 UNK         0.0554 
     88 H88       -72.5704   30.8388  -75.7967 H         1 UNK         0.0847 
     89 H89       -72.6800   29.5021  -76.9211 H         1 UNK         0.0847 
     90 H90       -71.1953   29.7667  -76.0105 H         1 UNK         0.0847 
     91 H91       -73.5826   26.9392  -75.1052 H         1 UNK         0.3141 
     92 H92       -70.7891   24.8741  -75.9364 H         1 UNK         0.0743 
     93 H93       -72.9537   24.9328  -73.7700 H         1 UNK         0.0784 
     94 H94       -72.0463   23.5166  -74.2946 H         1 UNK         0.0784 
     95 H95       -71.2206   24.8480  -73.4997 H         1 UNK         0.0784 
     96 H96       -73.7704   25.0996  -76.1936 H         1 UNK         0.3213 
     97 H97       -73.5584   23.8383  -79.5520 H         1 UNK         0.0855 
     98 H98       -74.6631   22.5957  -76.9808 H         1 UNK         0.0814 
     99 H99       -73.5595   21.8234  -78.1101 H         1 UNK         0.0814 
    100 H100      -75.1937   22.2187  -78.6188 H         1 UNK         0.0814 
    101 H101      -75.7875   24.6305  -77.9266 H         1 UNK         0.3105 
    102 H102      -76.1338   27.7895  -79.6530 H         1 UNK         0.0547 
    103 H103      -77.0122   25.9010  -81.0371 H         1 UNK         0.0837 
    104 H104      -77.6508   25.1281  -79.5911 H         1 UNK         0.0837 
    105 H105      -78.2894   26.6820  -80.1177 H         1 UNK         0.0837 
    106 H106      -77.6758   26.5291  -77.5765 H         1 UNK         0.3020 
    107 H107      -76.3265   28.5134  -74.9197 H         1 UNK         0.1245 
    108 H108      -79.0366   28.5277  -74.8909 H         1 UNK         0.0781 
    109 H109      -78.8630   28.7385  -76.5995 H         1 UNK         0.0781 
    110 H110      -79.9442   30.7280  -73.9260 H         1 UNK         0.0836 
    111 H111      -78.7775   31.9565  -73.5036 H         1 UNK         0.0836 
    112 H112      -78.2178   26.4765  -74.7576 H         1 UNK         0.3022 
    113 H113      -75.9948   23.6850  -74.4912 H         1 UNK         0.0747 
    114 H114      -77.3120   23.4651  -72.3860 H         1 UNK         0.0793 
    115 H115      -76.1176   24.7470  -72.2371 H         1 UNK         0.0793 
    116 H116      -77.8082   25.1519  -72.5004 H         1 UNK         0.0793 
    117 H117      -78.8328   23.8412  -74.3940 H         1 UNK         0.3047 
    118 H118      -79.3866   23.4455  -77.9506 H         1 UNK         0.0822 
    119 H119      -80.8632   21.7067  -76.9399 H         1 UNK         0.0807 
    120 H120      -79.9584   21.7969  -75.4286 H         1 UNK         0.0807 
    121 H121      -79.1767   21.2215  -76.8900 H         1 UNK         0.0807 
    122 H122      -81.1710   24.0196  -75.7812 H         1 UNK         0.2946 
    123 H123      -81.1409   27.5385  -76.0523 H         1 UNK         0.1144 
    124 H124      -82.5288   26.9276  -78.0392 H         1 UNK         0.0793 
    125 H125      -83.5369   27.2831  -76.6472 H         1 UNK         0.0793 
    126 H126      -83.2665   25.6101  -77.1387 H         1 UNK         0.0793 
    127 H127      -82.8911   25.7590  -74.6751 H         1 UNK         0.2896 
@<TRIPOS>BOND
     1    1    2 1    
     2    1   67 1    
     3    1   68 1    
     4    1   69 1    
     5    2    3 2    
     6    2    4 am   BACKBONE|DICT|INTERRES
     7    4    5 1    
     8    4   70 1    
     9    5    6 1    
    10    5   65 1    
    11    5   71 1    
    12    6    7 1    
    13    6   72 1    
    14    6   73 1    
    15    7    8 1    
    16    8    9 1    
    17    8   74 1    
    18    8   75 1    
    19    9   10 ar   
    20    9   14 ar   
    21   10   11 ar   
    22   10   76 1    
    23   11   12 ar   
    24   11   48 1    
    25   12   13 ar   
    26   12   77 1    
    27   13   14 ar   
    28   13   15 1    
    29   14   78 1    
    30   15   16 1    
    31   15   79 1    
    32   15   80 1    
    33   16   17 1    
    34   17   18 1    
    35   17   81 1    
    36   17   82 1    
    37   18   19 1    
    38   18   22 1    
    39   18   83 1    
    40   19   20 am   BACKBONE|DICT|INTERRES
    41   19   21 2    
    42   20   84 1    
    43   20   85 1    
    44   22   23 am   BACKBONE|DICT|INTERRES
    45   22   86 1    
    46   23   24 2    
    47   23   25 1    
    48   25   26 1    
    49   25   27 1    
    50   25   87 1    
    51   26   88 1    
    52   26   89 1    
    53   26   90 1    
    54   27   28 am   BACKBONE|DICT|INTERRES
    55   27   91 1    
    56   28   29 2    
    57   28   30 1    
    58   30   31 1    
    59   30   32 1    
    60   30   92 1    
    61   31   93 1    
    62   31   94 1    
    63   31   95 1    
    64   32   33 am   BACKBONE|DICT|INTERRES
    65   32   96 1    
    66   33   34 2    
    67   33   35 1    
    68   35   36 1    
    69   35   37 1    
    70   35   97 1    
    71   36   98 1    
    72   36   99 1    
    73   36  100 1    
    74   37   38 am   BACKBONE|DICT|INTERRES
    75   37  101 1    
    76   38   39 2    
    77   38   40 1    
    78   40   41 1    
    79   40   42 1    
    80   40  102 1    
    81   41  103 1    
    82   41  104 1    
    83   41  105 1    
    84   42   43 am   BACKBONE|DICT|INTERRES
    85   42  106 1    
    86   43   44 2    
    87   43   45 1    
    88   45   46 1    
    89   45   49 1    
    90   45  107 1    
    91   46   47 1    
    92   46  108 1    
    93   46  109 1    
    94   47   48 1    
    95   48  110 1    
    96   48  111 1    
    97   49   50 am   BACKBONE|DICT|INTERRES
    98   49  112 1    
    99   50   51 2    
   100   50   52 1    
   101   52   53 1    
   102   52   54 1    
   103   52  113 1    
   104   53  114 1    
   105   53  115 1    
   106   53  116 1    
   107   54   55 am   BACKBONE|DICT|INTERRES
   108   54  117 1    
   109   55   56 2    
   110   55   57 1    
   111   57   58 1    
   112   57   59 1    
   113   57  118 1    
   114   58  119 1    
   115   58  120 1    
   116   58  121 1    
   117   59   60 am   BACKBONE|DICT|INTERRES
   118   59  122 1    
   119   60   61 2    
   120   60   62 1    
   121   62   63 1    
   122   62   64 1    
   123   62  123 1    
   124   63  124 1    
   125   63  125 1    
   126   63  126 1    
   127   64   65 am   BACKBONE|DICT|INTERRES
   128   64  127 1    
   129   65   66 2    
@<TRIPOS>SUBSTRUCTURE
     1 UNK         1 GROUP             0       ****    0 ROOT    
