@<TRIPOS>MOLECULE
3R135
127   129    1
SMALL
USER_CHARGES


@<TRIPOS>ATOM
      1 CA        -85.4603   29.0872  -73.4816 C.3       0 UNK        -0.1998 
      2 C         -84.1703   29.1127  -74.2877 C.2       0 UNK         0.4909 
      3 O         -84.2098   29.3368  -75.4976 O.2       0 UNK        -0.5240 
      4 N         -83.0295   28.8930  -73.6222 N.am      1 UNK        -0.4739 
      5 CA        -81.6916   28.8133  -74.2198 C.3       1 UNK         0.0864 
      6 C6        -80.5634   28.9009  -73.1560 C.3       11 UNK        -0.0881 
      7 S7        -80.8540   27.8743  -71.6681 S.3       11 UNK        -0.2682 
      8 C8        -79.8672   28.7641  -70.4231 C.3       11 UNK         0.0289 
      9 C9        -78.3805   28.5647  -70.6664 C.ar      11 UNK        -0.0687 
     10 C10       -77.7943   27.3317  -70.3748 C.ar      11 UNK        -0.0823 
     11 C11       -76.4456   27.0940  -70.6633 C.ar      11 UNK        -0.0830 
     12 C12       -75.6705   28.1334  -71.1870 C.ar      11 UNK        -0.1021 
     13 C13       -76.2364   29.3854  -71.4452 C.ar      11 UNK        -0.0753 
     14 C14       -77.5965   29.5925  -71.1971 C.ar      11 UNK        -0.0933 
     15 C15       -75.3739   30.5155  -71.9809 C.3       11 UNK         0.0166 
     16 S16       -75.1163   30.3614  -73.7723 S.3       11 UNK        -0.2615 
     17 C17       -74.1913   31.9017  -74.1111 C.3       11 UNK        -0.0865 
     18 CA        -72.6627   31.7023  -74.2940 C.3       10 UNK         0.0862 
     19 C         -71.9115   31.4686  -72.9482 C.2       10 UNK         0.5551 
     20 N         -71.0563   30.4604  -72.8189 N.am      10 UNK        -0.7319 
     21 O         -72.0983   32.2306  -72.0030 O.2       10 UNK        -0.5018 
     22 N         -72.3813   30.7073  -75.3364 N.am      10 UNK        -0.4509 
     23 C         -71.2923   30.6781  -76.1107 C.2       10 UNK         0.4899 
     24 O         -70.4166   31.5447  -76.1047 O.2       10 UNK        -0.4839 
     25 CA        -71.1724   29.4477  -77.0256 C.3       9 UNK         0.0222 
     26 CB        -69.8190   29.3651  -77.7632 C.3       9 UNK        -0.1966 
     27 N         -71.4622   28.1986  -76.3091 N.am      9 UNK        -0.4218 
     28 C         -70.7859   27.6745  -75.2722 C.2       9 UNK         0.5020 
     29 O         -69.8230   28.2297  -74.7414 O.2       9 UNK        -0.5274 
     30 CA        -71.2608   26.3216  -74.6953 C.3       8 UNK         0.0270 
     31 CB        -71.7643   26.5096  -73.2533 C.3       8 UNK        -0.1976 
     32 N         -72.3091   25.6624  -75.4808 N.am      8 UNK        -0.4313 
     33 C         -72.1633   25.1754  -76.7238 C.2       8 UNK         0.5041 
     34 O         -71.0723   25.0731  -77.2854 O.2       8 UNK        -0.5577 
     35 CA        -73.4397   24.7877  -77.5028 C.3       7 UNK         0.0284 
     36 CB        -73.5762   23.2581  -77.5720 C.3       7 UNK        -0.1958 
     37 N         -74.6844   25.3523  -76.9677 N.am      7 UNK        -0.4454 
     38 C         -74.9439   26.6474  -76.7309 C.2       7 UNK         0.5089 
     39 O         -74.1995   27.5659  -77.0764 O.2       7 UNK        -0.5125 
     40 CA        -76.1917   26.9667  -75.8847 C.3       6 UNK         0.0408 
     41 CB        -77.3392   27.4657  -76.7730 C.3       6 UNK        -0.1791 
     42 N         -76.6603   25.8460  -75.0583 N.am      6 UNK        -0.4762 
     43 C         -75.9487   25.2338  -74.0966 C.2       6 UNK         0.5007 
     44 O         -74.7899   25.5372  -73.8127 O.2       6 UNK        -0.5032 
     45 CA        -76.6176   24.0439  -73.3855 C.3       5 UNK         0.0783 
     46 C46       -77.5979   24.5096  -72.2776 C.3       11 UNK        -0.0857 
     47 S47       -76.9153   24.2957  -70.5975 S.3       11 UNK        -0.2512 
     48 C48       -75.7976   25.7327  -70.4177 C.3       11 UNK         0.0225 
     49 N         -77.2790   23.1890  -74.3717 N.am      5 UNK        -0.4615 
     50 C         -76.7184   22.1162  -74.9442 C.2       4 UNK         0.5053 
     51 O         -75.5967   21.6960  -74.6609 O.2       4 UNK        -0.5105 
     52 CA        -77.5400   21.3797  -76.0182 C.3       4 UNK         0.0263 
     53 CB        -78.2789   20.1824  -75.3989 C.3       4 UNK        -0.1981 
     54 N         -78.5064   22.2347  -76.7124 N.am      4 UNK        -0.4224 
     55 C         -78.1797   23.2600  -77.5110 C.2       3 UNK         0.4895 
     56 O         -77.0225   23.5920  -77.7649 O.2       3 UNK        -0.5091 
     57 CA        -79.3424   24.0794  -78.0936 C.3       3 UNK         0.0250 
     58 CB        -79.8483   23.4364  -79.3949 C.3       3 UNK        -0.1996 
     59 N         -80.4741   24.2904  -77.1808 N.am      3 UNK        -0.4254 
     60 C         -80.4077   24.8123  -75.9468 C.2       2 UNK         0.5004 
     61 O         -79.3557   25.0485  -75.3475 O.2       2 UNK        -0.5226 
     62 CA        -81.7510   25.0878  -75.2495 C.3       2 UNK         0.0269 
     63 CB        -82.0500   23.9811  -74.2258 C.3       2 UNK        -0.1926 
     64 N         -81.7887   26.3876  -74.5707 N.am      2 UNK        -0.4687 
     65 C         -81.5467   27.5805  -75.1357 C.2       1 UNK         0.5165 
     66 O         -81.2676   27.7380  -76.3257 O.2       1 UNK        -0.5079 
     67 H67       -85.2785   28.8783  -72.4275 H         1 UNK         0.0900 
     68 H68       -85.9673   30.0490  -73.5540 H         1 UNK         0.0900 
     69 H69       -86.1291   28.3190  -73.8687 H         1 UNK         0.0900 
     70 H70       -83.0591   28.7113  -72.6282 H         1 UNK         0.2959 
     71 H71       -81.5823   29.6837  -74.8713 H         1 UNK         0.1079 
     72 H72       -79.5921   28.6415  -73.5836 H         1 UNK         0.0837 
     73 H73       -80.4710   29.9397  -72.8357 H         1 UNK         0.0837 
     74 H74       -80.1250   28.3874  -69.4322 H         1 UNK         0.0685 
     75 H75       -80.1302   29.8230  -70.4264 H         1 UNK         0.0685 
     76 H76       -78.4090   26.5452  -69.9598 H         1 UNK         0.1434 
     77 H77       -74.6230   27.9692  -71.4022 H         1 UNK         0.1329 
     78 H78       -78.0437   30.5522  -71.4172 H         1 UNK         0.1335 
     79 H79       -75.8367   31.4788  -71.7613 H         1 UNK         0.0680 
     80 H80       -74.4089   30.5128  -71.4724 H         1 UNK         0.0680 
     81 H81       -74.3983   32.6456  -73.3394 H         1 UNK         0.1032 
     82 H82       -74.6025   32.3274  -75.0276 H         1 UNK         0.1032 
     83 H83       -72.2773   32.6580  -74.6543 H         1 UNK         0.0461 
     84 H84       -70.5777   30.3358  -71.9414 H         1 UNK         0.3453 
     85 H85       -70.8432   29.8523  -73.5974 H         1 UNK         0.3453 
     86 H86       -73.0425   29.9458  -75.3966 H         1 UNK         0.2984 
     87 H87       -71.9521   29.5511  -77.7816 H         1 UNK         0.0554 
     88 H88       -69.6634   30.2428  -78.3916 H         1 UNK         0.0847 
     89 H89       -69.7742   28.4903  -78.4118 H         1 UNK         0.0847 
     90 H90       -68.9795   29.3112  -77.0694 H         1 UNK         0.0847 
     91 H91       -72.3007   27.7158  -76.6214 H         1 UNK         0.3141 
     92 H92       -70.3936   25.6587  -74.6737 H         1 UNK         0.0743 
     93 H93       -70.9866   26.9332  -72.6163 H         1 UNK         0.0784 
     94 H94       -72.6215   27.1835  -73.2116 H         1 UNK         0.0784 
     95 H95       -72.0633   25.5602  -72.8087 H         1 UNK         0.0784 
     96 H96       -73.2381   25.6651  -75.0675 H         1 UNK         0.3213 
     97 H97       -73.3226   25.1707  -78.5182 H         1 UNK         0.0855 
     98 H98       -73.7491   22.8246  -76.5862 H         1 UNK         0.0814 
     99 H99       -72.6720   22.8008  -77.9763 H         1 UNK         0.0814 
    100 H100      -74.4020   22.9613  -78.2186 H         1 UNK         0.0814 
    101 H101      -75.4078   24.6859  -76.7250 H         1 UNK         0.3105 
    102 H102      -75.9190   27.7721  -75.2006 H         1 UNK         0.0547 
    103 H103      -78.2214   27.7177  -76.1840 H         1 UNK         0.0837 
    104 H104      -77.6281   26.7173  -77.5089 H         1 UNK         0.0837 
    105 H105      -77.0455   28.3631  -77.3190 H         1 UNK         0.0837 
    106 H106      -77.6206   25.5419  -75.2149 H         1 UNK         0.3020 
    107 H107      -75.8125   23.4705  -72.9195 H         1 UNK         0.1245 
    108 H108      -78.5086   23.9086  -72.3037 H         1 UNK         0.0781 
    109 H109      -77.9459   25.5332  -72.4280 H         1 UNK         0.0781 
    110 H110      -74.9521   25.5936  -71.0931 H         1 UNK         0.0836 
    111 H111      -75.3850   25.7250  -69.4082 H         1 UNK         0.0836 
    112 H112      -78.1801   23.5124  -74.7054 H         1 UNK         0.3022 
    113 H113      -76.8359   21.0008  -76.7622 H         1 UNK         0.0747 
    114 H114      -78.7966   19.5978  -76.1597 H         1 UNK         0.0793 
    115 H115      -77.5810   19.5106  -74.8968 H         1 UNK         0.0793 
    116 H116      -79.0146   20.5001  -74.6588 H         1 UNK         0.0793 
    117 H117      -79.4851   22.0415  -76.5574 H         1 UNK         0.3047 
    118 H118      -78.9488   25.0650  -78.3433 H         1 UNK         0.0822 
    119 H119      -80.5850   24.0686  -79.8910 H         1 UNK         0.0807 
    120 H120      -80.3067   22.4631  -79.2148 H         1 UNK         0.0807 
    121 H121      -79.0295   23.2852  -80.1001 H         1 UNK         0.0807 
    122 H122      -81.3878   24.1082  -77.5707 H         1 UNK         0.2946 
    123 H123      -82.5429   25.0944  -76.0013 H         1 UNK         0.1144 
    124 H124      -81.3028   23.9567  -73.4310 H         1 UNK         0.0793 
    125 H125      -82.0549   22.9983  -74.6992 H         1 UNK         0.0793 
    126 H126      -83.0273   24.1203  -73.7632 H         1 UNK         0.0793 
    127 H127      -81.9767   26.3743  -73.5783 H         1 UNK         0.2896 
@<TRIPOS>BOND
     1    1    2 1    
     2    1   67 1    
     3    1   68 1    
     4    1   69 1    
     5    2    3 2    
     6    2    4 am   BACKBONE|DICT|INTERRES
     7    4    5 1    
     8    4   70 1    
     9    5    6 1    
    10    5   65 1    
    11    5   71 1    
    12    6    7 1    
    13    6   72 1    
    14    6   73 1    
    15    7    8 1    
    16    8    9 1    
    17    8   74 1    
    18    8   75 1    
    19    9   10 ar   
    20    9   14 ar   
    21   10   11 ar   
    22   10   76 1    
    23   11   12 ar   
    24   11   48 1    
    25   12   13 ar   
    26   12   77 1    
    27   13   14 ar   
    28   13   15 1    
    29   14   78 1    
    30   15   16 1    
    31   15   79 1    
    32   15   80 1    
    33   16   17 1    
    34   17   18 1    
    35   17   81 1    
    36   17   82 1    
    37   18   19 1    
    38   18   22 1    
    39   18   83 1    
    40   19   20 am   BACKBONE|DICT|INTERRES
    41   19   21 2    
    42   20   84 1    
    43   20   85 1    
    44   22   23 am   BACKBONE|DICT|INTERRES
    45   22   86 1    
    46   23   24 2    
    47   23   25 1    
    48   25   26 1    
    49   25   27 1    
    50   25   87 1    
    51   26   88 1    
    52   26   89 1    
    53   26   90 1    
    54   27   28 am   BACKBONE|DICT|INTERRES
    55   27   91 1    
    56   28   29 2    
    57   28   30 1    
    58   30   31 1    
    59   30   32 1    
    60   30   92 1    
    61   31   93 1    
    62   31   94 1    
    63   31   95 1    
    64   32   33 am   BACKBONE|DICT|INTERRES
    65   32   96 1    
    66   33   34 2    
    67   33   35 1    
    68   35   36 1    
    69   35   37 1    
    70   35   97 1    
    71   36   98 1    
    72   36   99 1    
    73   36  100 1    
    74   37   38 am   BACKBONE|DICT|INTERRES
    75   37  101 1    
    76   38   39 2    
    77   38   40 1    
    78   40   41 1    
    79   40   42 1    
    80   40  102 1    
    81   41  103 1    
    82   41  104 1    
    83   41  105 1    
    84   42   43 am   BACKBONE|DICT|INTERRES
    85   42  106 1    
    86   43   44 2    
    87   43   45 1    
    88   45   46 1    
    89   45   49 1    
    90   45  107 1    
    91   46   47 1    
    92   46  108 1    
    93   46  109 1    
    94   47   48 1    
    95   48  110 1    
    96   48  111 1    
    97   49   50 am   BACKBONE|DICT|INTERRES
    98   49  112 1    
    99   50   51 2    
   100   50   52 1    
   101   52   53 1    
   102   52   54 1    
   103   52  113 1    
   104   53  114 1    
   105   53  115 1    
   106   53  116 1    
   107   54   55 am   BACKBONE|DICT|INTERRES
   108   54  117 1    
   109   55   56 2    
   110   55   57 1    
   111   57   58 1    
   112   57   59 1    
   113   57  118 1    
   114   58  119 1    
   115   58  120 1    
   116   58  121 1    
   117   59   60 am   BACKBONE|DICT|INTERRES
   118   59  122 1    
   119   60   61 2    
   120   60   62 1    
   121   62   63 1    
   122   62   64 1    
   123   62  123 1    
   124   63  124 1    
   125   63  125 1    
   126   63  126 1    
   127   64   65 am   BACKBONE|DICT|INTERRES
   128   64  127 1    
   129   65   66 2    
@<TRIPOS>SUBSTRUCTURE
     1 UNK         1 GROUP             0       ****    0 ROOT    
