@<TRIPOS>MOLECULE
3R135
127   129    1
SMALL
USER_CHARGES


@<TRIPOS>ATOM
      1 CA        -84.7217   29.4754  -73.7811 C.3       0 UNK        -0.1998 
      2 C         -83.2945   28.9912  -73.9879 C.2       0 UNK         0.4909 
      3 O         -82.6649   29.3532  -74.9816 O.2       0 UNK        -0.5240 
      4 N         -82.7830   28.1766  -73.0553 N.am      1 UNK        -0.4739 
      5 CA        -81.4260   27.6104  -73.0771 C.3       1 UNK         0.0864 
      6 C6        -81.0430   27.0123  -71.7001 C.3       11 UNK        -0.0881 
      7 S7        -80.9670   28.3022  -70.4081 S.3       11 UNK        -0.2682 
      8 C8        -79.3049   28.0551  -69.6831 C.3       11 UNK         0.0289 
      9 C9        -78.1348   28.1640  -70.6625 C.ar      11 UNK        -0.0687 
     10 C10       -78.1789   28.9980  -71.7842 C.ar      11 UNK        -0.0823 
     11 C11       -77.1146   29.0383  -72.6898 C.ar      11 UNK        -0.0830 
     12 C12       -75.9767   28.2637  -72.4471 C.ar      11 UNK        -0.1021 
     13 C13       -75.8849   27.4740  -71.2934 C.ar      11 UNK        -0.0753 
     14 C14       -76.9756   27.4215  -70.4194 C.ar      11 UNK        -0.0933 
     15 C15       -74.6412   26.6462  -70.9609 C.3       11 UNK         0.0166 
     16 S16       -73.0532   27.3086  -71.5715 S.3       11 UNK        -0.2615 
     17 C17       -73.0109   28.9926  -70.8539 C.3       11 UNK        -0.0865 
     18 CA        -72.0963   29.9672  -71.6462 C.3       10 UNK         0.0862 
     19 C         -70.5924   29.7635  -71.2895 C.2       10 UNK         0.5551 
     20 N         -69.7215   29.4169  -72.2297 N.am      10 UNK        -0.7319 
     21 O         -70.2082   29.9384  -70.1355 O.2       10 UNK        -0.5018 
     22 N         -72.4129   29.9495  -73.0845 N.am      10 UNK        -0.4509 
     23 C         -72.0559   30.8696  -73.9866 C.2       10 UNK         0.4899 
     24 O         -71.4895   31.9245  -73.6972 O.2       10 UNK        -0.4839 
     25 CA        -72.3500   30.5231  -75.4619 C.3       9 UNK         0.0222 
     26 CB        -71.8353   31.5973  -76.4385 C.3       9 UNK        -0.1966 
     27 N         -71.7746   29.2238  -75.8331 N.am      9 UNK        -0.4218 
     28 C         -72.3382   28.0377  -75.5725 C.2       9 UNK         0.5020 
     29 O         -73.4246   27.9172  -75.0090 O.2       9 UNK        -0.5274 
     30 CA        -71.5203   26.7904  -75.9152 C.3       8 UNK         0.0270 
     31 CB        -70.5864   26.4292  -74.7428 C.3       8 UNK        -0.1976 
     32 N         -72.4205   25.6753  -76.2094 N.am      8 UNK        -0.4313 
     33 C         -72.0637   24.5689  -76.8760 C.2       8 UNK         0.5041 
     34 O         -70.9195   24.3535  -77.2800 O.2       8 UNK        -0.5577 
     35 CA        -73.1607   23.5334  -77.1733 C.3       7 UNK         0.0284 
     36 CB        -73.4742   22.6788  -75.9340 C.3       7 UNK        -0.1958 
     37 N         -74.3840   24.1542  -77.6805 N.am      7 UNK        -0.4454 
     38 C         -74.5080   24.7025  -78.8983 C.2       7 UNK         0.5089 
     39 O         -73.6225   24.6821  -79.7538 O.2       7 UNK        -0.5125 
     40 CA        -75.8395   25.4037  -79.2192 C.3       6 UNK         0.0408 
     41 CB        -76.8304   24.4297  -79.8763 C.3       6 UNK        -0.1791 
     42 N         -76.4456   26.0084  -78.0313 N.am      6 UNK        -0.4762 
     43 C         -75.9973   27.1324  -77.4513 C.2       6 UNK         0.5007 
     44 O         -75.0875   27.8188  -77.9177 O.2       6 UNK        -0.5032 
     45 CA        -76.6794   27.5721  -76.1383 C.3       5 UNK         0.0783 
     46 C46       -77.7213   28.6755  -76.4495 C.3       11 UNK        -0.0857 
     47 S47       -78.5579   29.4299  -75.0168 S.3       11 UNK        -0.2512 
     48 C48       -77.2014   29.9410  -73.9125 C.3       11 UNK         0.0225 
     49 N         -77.2293   26.4416  -75.3751 N.am      5 UNK        -0.4615 
     50 C         -76.4693   25.4817  -74.8225 C.2       4 UNK         0.5053 
     51 O         -75.2424   25.4479  -74.9072 O.2       4 UNK        -0.5105 
     52 CA        -77.1945   24.3191  -74.1265 C.3       4 UNK         0.0263 
     53 CB        -77.7323   24.7405  -72.7525 C.3       4 UNK        -0.1981 
     54 N         -78.2843   23.7734  -74.9352 N.am      4 UNK        -0.4224 
     55 C         -78.1422   23.1772  -76.1251 C.2       3 UNK         0.4895 
     56 O         -77.0530   23.0292  -76.6784 O.2       3 UNK        -0.5091 
     57 CA        -79.4139   22.6857  -76.8454 C.3       3 UNK         0.0250 
     58 CB        -79.7272   21.2218  -76.4794 C.3       3 UNK        -0.1996 
     59 N         -80.5897   23.5562  -76.6803 N.am      3 UNK        -0.4254 
     60 C         -81.2926   23.8132  -75.5678 C.2       2 UNK         0.5004 
     61 O         -81.0913   23.2741  -74.4770 O.2       2 UNK        -0.5226 
     62 CA        -82.3711   24.9035  -75.6835 C.3       2 UNK         0.0269 
     63 CB        -83.7728   24.2742  -75.7240 C.3       2 UNK        -0.1926 
     64 N         -82.3119   25.8808  -74.5904 N.am      2 UNK        -0.4687 
     65 C         -81.2286   26.5796  -74.2104 C.2       1 UNK         0.5165 
     66 O         -80.1166   26.4552  -74.7280 O.2       1 UNK        -0.5079 
     67 H67       -85.1564   29.0843  -72.8613 H         1 UNK         0.0900 
     68 H68       -85.3494   29.1595  -74.6139 H         1 UNK         0.0900 
     69 H69       -84.7446   30.5636  -73.7304 H         1 UNK         0.0900 
     70 H70       -83.3395   27.9385  -72.2465 H         1 UNK         0.2959 
     71 H71       -80.7370   28.4283  -73.2943 H         1 UNK         0.1079 
     72 H72       -81.7628   26.2507  -71.3946 H         1 UNK         0.0837 
     73 H73       -80.0793   26.5071  -71.7509 H         1 UNK         0.0837 
     74 H74       -79.1606   28.7916  -68.8918 H         1 UNK         0.0685 
     75 H75       -79.2940   27.0770  -69.1994 H         1 UNK         0.0685 
     76 H76       -79.0518   29.6071  -71.9712 H         1 UNK         0.1434 
     77 H77       -75.1547   28.2890  -73.1473 H         1 UNK         0.1329 
     78 H78       -76.9224   26.7933  -69.5405 H         1 UNK         0.1335 
     79 H79       -74.5554   26.5243  -69.8800 H         1 UNK         0.0680 
     80 H80       -74.7688   25.6459  -71.3750 H         1 UNK         0.0680 
     81 H81       -72.7129   28.9267  -69.8057 H         1 UNK         0.1032 
     82 H82       -74.0205   29.4025  -70.8366 H         1 UNK         0.1032 
     83 H83       -72.3319   30.9732  -71.2938 H         1 UNK         0.0461 
     84 H84       -70.0270   29.2875  -73.1789 H         1 UNK         0.3453 
     85 H85       -68.7516   29.2946  -71.9850 H         1 UNK         0.3453 
     86 H86       -72.8537   29.1004  -73.4245 H         1 UNK         0.2984 
     87 H87       -73.4359   30.4751  -75.5702 H         1 UNK         0.0554 
     88 H88       -72.0932   31.3525  -77.4691 H         1 UNK         0.0847 
     89 H89       -70.7523   31.7128  -76.3811 H         1 UNK         0.0847 
     90 H90       -72.2789   32.5696  -76.2194 H         1 UNK         0.0847 
     91 H91       -70.8611   29.2438  -76.2643 H         1 UNK         0.3141 
     92 H92       -70.9248   27.0040  -76.8054 H         1 UNK         0.0743 
     93 H93       -71.1522   26.1922  -73.8407 H         1 UNK         0.0784 
     94 H94       -69.9592   25.5695  -74.9780 H         1 UNK         0.0784 
     95 H95       -69.9174   27.2556  -74.5014 H         1 UNK         0.0784 
     96 H96       -73.3779   25.7933  -75.8815 H         1 UNK         0.3213 
     97 H97       -72.7825   22.8638  -77.9490 H         1 UNK         0.0855 
     98 H98       -73.8232   23.2824  -75.0966 H         1 UNK         0.0814 
     99 H99       -72.5847   22.1446  -75.5980 H         1 UNK         0.0814 
    100 H100      -74.2397   21.9330  -76.1497 H         1 UNK         0.0814 
    101 H101      -75.1777   24.1840  -77.0514 H         1 UNK         0.3105 
    102 H102      -75.6305   26.1985  -79.9386 H         1 UNK         0.0547 
    103 H103      -76.4206   24.0326  -80.8059 H         1 UNK         0.0837 
    104 H104      -77.0539   23.5776  -79.2353 H         1 UNK         0.0837 
    105 H105      -77.7704   24.9230  -80.1233 H         1 UNK         0.0837 
    106 H106      -77.1824   25.4914  -77.5734 H         1 UNK         0.3020 
    107 H107      -75.8908   28.0093  -75.5274 H         1 UNK         0.1245 
    108 H108      -78.5009   28.2779  -77.1023 H         1 UNK         0.0781 
    109 H109      -77.2529   29.4904  -77.0056 H         1 UNK         0.0781 
    110 H110      -77.3971   30.9603  -73.5768 H         1 UNK         0.0836 
    111 H111      -76.2543   29.9836  -74.4514 H         1 UNK         0.0836 
    112 H112      -78.2363   26.4283  -75.2296 H         1 UNK         0.3022 
    113 H113      -76.4722   23.5141  -73.9750 H         1 UNK         0.0747 
    114 H114      -78.3742   23.9760  -72.3148 H         1 UNK         0.0793 
    115 H115      -76.9127   24.9091  -72.0563 H         1 UNK         0.0793 
    116 H116      -78.2998   25.6680  -72.8144 H         1 UNK         0.0793 
    117 H117      -79.2242   23.8394  -74.5559 H         1 UNK         0.3047 
    118 H118      -79.1858   22.7081  -77.9123 H         1 UNK         0.0822 
    119 H119      -80.5903   20.8505  -77.0319 H         1 UNK         0.0807 
    120 H120      -79.9310   21.0986  -75.4154 H         1 UNK         0.0807 
    121 H121      -78.8839   20.5738  -76.7218 H         1 UNK         0.0807 
    122 H122      -80.8383   24.0756  -77.5113 H         1 UNK         0.2946 
    123 H123      -82.2129   25.4568  -76.6117 H         1 UNK         0.1144 
    124 H124      -84.5446   25.0290  -75.8759 H         1 UNK         0.0793 
    125 H125      -84.0005   23.7405  -74.8001 H         1 UNK         0.0793 
    126 H126      -83.8566   23.5580  -76.5427 H         1 UNK         0.0793 
    127 H127      -83.1743   26.0551  -74.0962 H         1 UNK         0.2896 
@<TRIPOS>BOND
     1    1    2 1    
     2    1   67 1    
     3    1   68 1    
     4    1   69 1    
     5    2    3 2    
     6    2    4 am   BACKBONE|DICT|INTERRES
     7    4    5 1    
     8    4   70 1    
     9    5    6 1    
    10    5   65 1    
    11    5   71 1    
    12    6    7 1    
    13    6   72 1    
    14    6   73 1    
    15    7    8 1    
    16    8    9 1    
    17    8   74 1    
    18    8   75 1    
    19    9   10 ar   
    20    9   14 ar   
    21   10   11 ar   
    22   10   76 1    
    23   11   12 ar   
    24   11   48 1    
    25   12   13 ar   
    26   12   77 1    
    27   13   14 ar   
    28   13   15 1    
    29   14   78 1    
    30   15   16 1    
    31   15   79 1    
    32   15   80 1    
    33   16   17 1    
    34   17   18 1    
    35   17   81 1    
    36   17   82 1    
    37   18   19 1    
    38   18   22 1    
    39   18   83 1    
    40   19   20 am   BACKBONE|DICT|INTERRES
    41   19   21 2    
    42   20   84 1    
    43   20   85 1    
    44   22   23 am   BACKBONE|DICT|INTERRES
    45   22   86 1    
    46   23   24 2    
    47   23   25 1    
    48   25   26 1    
    49   25   27 1    
    50   25   87 1    
    51   26   88 1    
    52   26   89 1    
    53   26   90 1    
    54   27   28 am   BACKBONE|DICT|INTERRES
    55   27   91 1    
    56   28   29 2    
    57   28   30 1    
    58   30   31 1    
    59   30   32 1    
    60   30   92 1    
    61   31   93 1    
    62   31   94 1    
    63   31   95 1    
    64   32   33 am   BACKBONE|DICT|INTERRES
    65   32   96 1    
    66   33   34 2    
    67   33   35 1    
    68   35   36 1    
    69   35   37 1    
    70   35   97 1    
    71   36   98 1    
    72   36   99 1    
    73   36  100 1    
    74   37   38 am   BACKBONE|DICT|INTERRES
    75   37  101 1    
    76   38   39 2    
    77   38   40 1    
    78   40   41 1    
    79   40   42 1    
    80   40  102 1    
    81   41  103 1    
    82   41  104 1    
    83   41  105 1    
    84   42   43 am   BACKBONE|DICT|INTERRES
    85   42  106 1    
    86   43   44 2    
    87   43   45 1    
    88   45   46 1    
    89   45   49 1    
    90   45  107 1    
    91   46   47 1    
    92   46  108 1    
    93   46  109 1    
    94   47   48 1    
    95   48  110 1    
    96   48  111 1    
    97   49   50 am   BACKBONE|DICT|INTERRES
    98   49  112 1    
    99   50   51 2    
   100   50   52 1    
   101   52   53 1    
   102   52   54 1    
   103   52  113 1    
   104   53  114 1    
   105   53  115 1    
   106   53  116 1    
   107   54   55 am   BACKBONE|DICT|INTERRES
   108   54  117 1    
   109   55   56 2    
   110   55   57 1    
   111   57   58 1    
   112   57   59 1    
   113   57  118 1    
   114   58  119 1    
   115   58  120 1    
   116   58  121 1    
   117   59   60 am   BACKBONE|DICT|INTERRES
   118   59  122 1    
   119   60   61 2    
   120   60   62 1    
   121   62   63 1    
   122   62   64 1    
   123   62  123 1    
   124   63  124 1    
   125   63  125 1    
   126   63  126 1    
   127   64   65 am   BACKBONE|DICT|INTERRES
   128   64  127 1    
   129   65   66 2    
@<TRIPOS>SUBSTRUCTURE
     1 UNK         1 GROUP             0       ****    0 ROOT    
