@<TRIPOS>MOLECULE
3R135
127   129    1
SMALL
USER_CHARGES


@<TRIPOS>ATOM
      1 CA        -76.3001   26.1072  -71.7302 C.3       0 UNK        -0.1998 
      2 C         -77.7464   25.6762  -71.5487 C.2       0 UNK         0.4909 
      3 O         -78.4126   25.3849  -72.5413 O.2       0 UNK        -0.5240 
      4 N         -78.2132   25.6154  -70.2890 N.am      1 UNK        -0.4739 
      5 CA        -79.5864   25.3712  -69.7907 C.3       1 UNK         0.0864 
      6 C6        -80.4877   26.6416  -69.8241 C.3       11 UNK        -0.0881 
      7 S7        -80.8458   27.2988  -71.4923 S.3       11 UNK        -0.2682 
      8 C8        -79.8180   28.8080  -71.4896 C.3       11 UNK         0.0289 
      9 C9        -79.3995   29.2818  -72.8794 C.ar      11 UNK        -0.0687 
     10 C10       -80.2680   29.2137  -73.9747 C.ar      11 UNK        -0.0823 
     11 C11       -79.8628   29.6658  -75.2340 C.ar      11 UNK        -0.0830 
     12 C12       -78.5869   30.2126  -75.3925 C.ar      11 UNK        -0.1021 
     13 C13       -77.7009   30.2728  -74.3135 C.ar      11 UNK        -0.0753 
     14 C14       -78.1201   29.8176  -73.0593 C.ar      11 UNK        -0.0933 
     15 C15       -76.2955   30.8275  -74.5107 C.3       11 UNK         0.0166 
     16 S16       -75.0240   29.5323  -74.3328 S.3       11 UNK        -0.2615 
     17 C17       -74.5407   29.7259  -72.5785 C.3       11 UNK        -0.0865 
     18 CA        -73.0949   30.2665  -72.4201 C.3       10 UNK         0.0862 
     19 C         -72.8102   30.6951  -70.9501 C.2       10 UNK         0.5551 
     20 N         -71.8422   30.1072  -70.2573 N.am      10 UNK        -0.7319 
     21 O         -73.4791   31.5854  -70.4314 O.2       10 UNK        -0.5018 
     22 N         -72.1132   29.3238  -72.9788 N.am      10 UNK        -0.4509 
     23 C         -70.8955   29.6447  -73.4339 C.2       10 UNK         0.4899 
     24 O         -70.4489   30.7922  -73.4395 O.2       10 UNK        -0.4839 
     25 CA        -70.0114   28.4946  -73.9618 C.3       9 UNK         0.0222 
     26 CB        -68.8131   28.2644  -73.0250 C.3       9 UNK        -0.1966 
     27 N         -70.7258   27.2239  -74.1417 N.am      9 UNK        -0.4218 
     28 C         -71.6265   26.9837  -75.1037 C.2       9 UNK         0.5020 
     29 O         -71.9304   27.8016  -75.9759 O.2       9 UNK        -0.5274 
     30 CA        -72.3359   25.6200  -75.0328 C.3       8 UNK         0.0270 
     31 CB        -73.3725   25.6092  -73.8962 C.3       8 UNK        -0.1976 
     32 N         -73.0224   25.3322  -76.2887 N.am      8 UNK        -0.4313 
     33 C         -72.4272   24.8764  -77.3990 C.2       8 UNK         0.5041 
     34 O         -71.2735   24.4456  -77.4369 O.2       8 UNK        -0.5577 
     35 CA        -73.2477   24.9627  -78.6942 C.3       7 UNK         0.0284 
     36 CB        -74.2210   23.7791  -78.8180 C.3       7 UNK        -0.1958 
     37 N         -73.9902   26.2229  -78.7253 N.am      7 UNK        -0.4454 
     38 C         -73.5094   27.3816  -79.1954 C.2       7 UNK         0.5089 
     39 O         -72.4475   27.4724  -79.8137 O.2       7 UNK        -0.5125 
     40 CA        -74.3192   28.6656  -78.9073 C.3       6 UNK         0.0408 
     41 CB        -74.5002   29.5319  -80.1715 C.3       6 UNK        -0.1791 
     42 N         -75.6011   28.4457  -78.2207 N.am      6 UNK        -0.4762 
     43 C         -76.6914   27.8253  -78.6973 C.2       6 UNK         0.5007 
     44 O         -76.7852   27.3650  -79.8363 O.2       6 UNK        -0.5032 
     45 CA        -77.8561   27.6374  -77.7077 C.3       5 UNK         0.0783 
     46 C46       -79.1879   28.1575  -78.3100 C.3       11 UNK        -0.0857 
     47 S47       -80.6398   27.9201  -77.2250 S.3       11 UNK        -0.2512 
     48 C48       -80.8028   29.5466  -76.4227 C.3       11 UNK         0.0225 
     49 N         -77.9572   26.2521  -77.2479 N.am      5 UNK        -0.4615 
     50 C         -77.0157   25.5512  -76.6036 C.2       4 UNK         0.5053 
     51 O         -75.8568   25.9415  -76.4412 O.2       4 UNK        -0.5105 
     52 CA        -77.4645   24.2014  -76.0147 C.3       4 UNK         0.0263 
     53 CB        -76.3937   23.5614  -75.1121 C.3       4 UNK        -0.1981 
     54 N         -78.6895   24.3667  -75.2314 N.am      4 UNK        -0.4224 
     55 C         -79.9395   24.3395  -75.7136 C.2       3 UNK         0.4895 
     56 O         -80.2067   24.1454  -76.9007 O.2       3 UNK        -0.5091 
     57 CA        -81.0584   24.6008  -74.6912 C.3       3 UNK         0.0250 
     58 CB        -82.4754   24.3046  -75.2261 C.3       3 UNK        -0.1996 
     59 N         -80.7814   23.9134  -73.4266 N.am      3 UNK        -0.4254 
     60 C         -80.7829   22.5943  -73.1731 C.2       2 UNK         0.5004 
     61 O         -81.1948   21.7428  -73.9617 O.2       2 UNK        -0.5226 
     62 CA        -80.1842   22.1319  -71.8243 C.3       2 UNK         0.0269 
     63 CB        -79.0837   21.0789  -72.0463 C.3       2 UNK        -0.1926 
     64 N         -79.6141   23.2358  -71.0452 N.am      2 UNK        -0.4687 
     65 C         -80.3176   24.1076  -70.3133 C.2       1 UNK         0.5165 
     66 O         -81.5112   23.9439  -70.0549 O.2       1 UNK        -0.5079 
     67 H67       -75.6761   25.2417  -71.9486 H         1 UNK         0.0900 
     68 H68       -75.9078   26.6004  -70.8413 H         1 UNK         0.0900 
     69 H69       -76.2244   26.8039  -72.5652 H         1 UNK         0.0900 
     70 H70       -77.5549   25.8200  -69.5498 H         1 UNK         0.2959 
     71 H71       -79.4406   25.1434  -68.7334 H         1 UNK         0.1079 
     72 H72       -81.4423   26.4469  -69.3315 H         1 UNK         0.0837 
     73 H73       -80.0259   27.4238  -69.2204 H         1 UNK         0.0837 
     74 H74       -80.3632   29.6087  -70.9885 H         1 UNK         0.0685 
     75 H75       -78.9247   28.6175  -70.8929 H         1 UNK         0.0685 
     76 H76       -81.2591   28.7992  -73.8523 H         1 UNK         0.1434 
     77 H77       -78.2761   30.5698  -76.3648 H         1 UNK         0.1329 
     78 H78       -77.4456   29.8730  -72.2180 H         1 UNK         0.1335 
     79 H79       -76.1969   31.2604  -75.5073 H         1 UNK         0.0680 
     80 H80       -76.1152   31.6461  -73.8127 H         1 UNK         0.0680 
     81 H81       -74.6432   28.7611  -72.0799 H         1 UNK         0.1032 
     82 H82       -75.2471   30.3917  -72.0814 H         1 UNK         0.1032 
     83 H83       -73.0310   31.1872  -73.0037 H         1 UNK         0.0461 
     84 H84       -71.2833   29.3822  -70.6762 H         1 UNK         0.3453 
     85 H85       -71.6662   30.3981  -69.3085 H         1 UNK         0.3453 
     86 H86       -72.4017   28.3597  -73.0259 H         1 UNK         0.2984 
     87 H87       -69.6257   28.8070  -74.9345 H         1 UNK         0.0554 
     88 H88       -68.1342   27.5112  -73.4254 H         1 UNK         0.0847 
     89 H89       -69.1297   27.9395  -72.0331 H         1 UNK         0.0847 
     90 H90       -68.2342   29.1803  -72.8970 H         1 UNK         0.0847 
     91 H91       -70.5333   26.4984  -73.4652 H         1 UNK         0.3141 
     92 H92       -71.5899   24.8452  -74.8432 H         1 UNK         0.0743 
     93 H93       -72.9141   25.8277  -72.9312 H         1 UNK         0.0784 
     94 H94       -73.8440   24.6309  -73.8088 H         1 UNK         0.0784 
     95 H95       -74.1589   26.3474  -74.0627 H         1 UNK         0.0784 
     96 H96       -73.9781   25.6728  -76.3569 H         1 UNK         0.3213 
     97 H97       -72.5563   24.9230  -79.5388 H         1 UNK         0.0855 
     98 H98       -73.6807   22.8315  -78.8151 H         1 UNK         0.0814 
     99 H99       -74.7849   23.8281  -79.7496 H         1 UNK         0.0814 
    100 H100      -74.9357   23.7481  -77.9967 H         1 UNK         0.0814 
    101 H101      -74.8499   26.2572  -78.1897 H         1 UNK         0.3105 
    102 H102      -73.7122   29.2392  -78.2050 H         1 UNK         0.0547 
    103 H103      -75.0327   28.9985  -80.9590 H         1 UNK         0.0837 
    104 H104      -73.5345   29.8288  -80.5821 H         1 UNK         0.0837 
    105 H105      -75.0508   30.4464  -79.9518 H         1 UNK         0.0837 
    106 H106      -75.6039   28.7224  -77.2471 H         1 UNK         0.3020 
    107 H107      -77.6347   28.2244  -76.8174 H         1 UNK         0.1245 
    108 H108      -79.4053   27.6392  -79.2461 H         1 UNK         0.0781 
    109 H109      -79.1017   29.2140  -78.5699 H         1 UNK         0.0781 
    110 H110      -81.8340   29.6684  -76.0875 H         1 UNK         0.0836 
    111 H111      -80.6255   30.3468  -77.1427 H         1 UNK         0.0836 
    112 H112      -78.8714   25.8273  -77.3454 H         1 UNK         0.3022 
    113 H113      -77.6519   23.5249  -76.8510 H         1 UNK         0.0747 
    114 H114      -76.7200   22.5900  -74.7405 H         1 UNK         0.0793 
    115 H115      -75.4588   23.4035  -75.6504 H         1 UNK         0.0793 
    116 H116      -76.1746   24.1912  -74.2499 H         1 UNK         0.0793 
    117 H117      -78.5645   24.6305  -74.2553 H         1 UNK         0.3047 
    118 H118      -81.0128   25.6679  -74.4657 H         1 UNK         0.0822 
    119 H119      -83.2328   24.4836  -74.4632 H         1 UNK         0.0807 
    120 H120      -82.5772   23.2749  -75.5691 H         1 UNK         0.0807 
    121 H121      -82.7090   24.9502  -76.0736 H         1 UNK         0.0807 
    122 H122      -80.3464   24.5036  -72.7259 H         1 UNK         0.2946 
    123 H123      -80.9939   21.6712  -71.2538 H         1 UNK         0.1144 
    124 H124      -79.4749   20.2048  -72.5687 H         1 UNK         0.0793 
    125 H125      -78.6724   20.7285  -71.0994 H         1 UNK         0.0793 
    126 H126      -78.2622   21.4755  -72.6444 H         1 UNK         0.0793 
    127 H127      -78.6515   23.4745  -71.2407 H         1 UNK         0.2896 
@<TRIPOS>BOND
     1    1    2 1    
     2    1   67 1    
     3    1   68 1    
     4    1   69 1    
     5    2    3 2    
     6    2    4 am   BACKBONE|DICT|INTERRES
     7    4    5 1    
     8    4   70 1    
     9    5    6 1    
    10    5   65 1    
    11    5   71 1    
    12    6    7 1    
    13    6   72 1    
    14    6   73 1    
    15    7    8 1    
    16    8    9 1    
    17    8   74 1    
    18    8   75 1    
    19    9   10 ar   
    20    9   14 ar   
    21   10   11 ar   
    22   10   76 1    
    23   11   12 ar   
    24   11   48 1    
    25   12   13 ar   
    26   12   77 1    
    27   13   14 ar   
    28   13   15 1    
    29   14   78 1    
    30   15   16 1    
    31   15   79 1    
    32   15   80 1    
    33   16   17 1    
    34   17   18 1    
    35   17   81 1    
    36   17   82 1    
    37   18   19 1    
    38   18   22 1    
    39   18   83 1    
    40   19   20 am   BACKBONE|DICT|INTERRES
    41   19   21 2    
    42   20   84 1    
    43   20   85 1    
    44   22   23 am   BACKBONE|DICT|INTERRES
    45   22   86 1    
    46   23   24 2    
    47   23   25 1    
    48   25   26 1    
    49   25   27 1    
    50   25   87 1    
    51   26   88 1    
    52   26   89 1    
    53   26   90 1    
    54   27   28 am   BACKBONE|DICT|INTERRES
    55   27   91 1    
    56   28   29 2    
    57   28   30 1    
    58   30   31 1    
    59   30   32 1    
    60   30   92 1    
    61   31   93 1    
    62   31   94 1    
    63   31   95 1    
    64   32   33 am   BACKBONE|DICT|INTERRES
    65   32   96 1    
    66   33   34 2    
    67   33   35 1    
    68   35   36 1    
    69   35   37 1    
    70   35   97 1    
    71   36   98 1    
    72   36   99 1    
    73   36  100 1    
    74   37   38 am   BACKBONE|DICT|INTERRES
    75   37  101 1    
    76   38   39 2    
    77   38   40 1    
    78   40   41 1    
    79   40   42 1    
    80   40  102 1    
    81   41  103 1    
    82   41  104 1    
    83   41  105 1    
    84   42   43 am   BACKBONE|DICT|INTERRES
    85   42  106 1    
    86   43   44 2    
    87   43   45 1    
    88   45   46 1    
    89   45   49 1    
    90   45  107 1    
    91   46   47 1    
    92   46  108 1    
    93   46  109 1    
    94   47   48 1    
    95   48  110 1    
    96   48  111 1    
    97   49   50 am   BACKBONE|DICT|INTERRES
    98   49  112 1    
    99   50   51 2    
   100   50   52 1    
   101   52   53 1    
   102   52   54 1    
   103   52  113 1    
   104   53  114 1    
   105   53  115 1    
   106   53  116 1    
   107   54   55 am   BACKBONE|DICT|INTERRES
   108   54  117 1    
   109   55   56 2    
   110   55   57 1    
   111   57   58 1    
   112   57   59 1    
   113   57  118 1    
   114   58  119 1    
   115   58  120 1    
   116   58  121 1    
   117   59   60 am   BACKBONE|DICT|INTERRES
   118   59  122 1    
   119   60   61 2    
   120   60   62 1    
   121   62   63 1    
   122   62   64 1    
   123   62  123 1    
   124   63  124 1    
   125   63  125 1    
   126   63  126 1    
   127   64   65 am   BACKBONE|DICT|INTERRES
   128   64  127 1    
   129   65   66 2    
@<TRIPOS>SUBSTRUCTURE
     1 UNK         1 GROUP             0       ****    0 ROOT    
