@<TRIPOS>MOLECULE
3R135
127   129    1
SMALL
USER_CHARGES


@<TRIPOS>ATOM
      1 CA        -81.4827   26.0749  -69.7126 C.3       0 UNK        -0.1998 
      2 C         -82.4652   26.6441  -70.7247 C.2       0 UNK         0.4909 
      3 O         -83.6045   26.9471  -70.3696 O.2       0 UNK        -0.5240 
      4 N         -82.0298   26.7887  -71.9806 N.am      1 UNK        -0.4739 
      5 CA        -82.8180   27.3311  -73.0955 C.3       1 UNK         0.0864 
      6 C6        -82.5250   28.8366  -73.3429 C.3       11 UNK        -0.0881 
      7 S7        -80.7678   29.1919  -73.6940 S.3       11 UNK        -0.2682 
      8 C8        -80.1868   29.7643  -72.0674 C.3       11 UNK         0.0289 
      9 C9        -78.7102   29.4524  -71.9045 C.ar      11 UNK        -0.0687 
     10 C10       -78.3125   28.2191  -71.3822 C.ar      11 UNK        -0.0823 
     11 C11       -76.9566   27.8778  -71.3047 C.ar      11 UNK        -0.0830 
     12 C12       -75.9994   28.8158  -71.7056 C.ar      11 UNK        -0.1021 
     13 C13       -76.3850   30.0686  -72.1914 C.ar      11 UNK        -0.0753 
     14 C14       -77.7428   30.3785  -72.3002 C.ar      11 UNK        -0.0933 
     15 C15       -75.3358   31.0902  -72.5924 C.3       11 UNK         0.0166 
     16 S16       -74.8782   30.9109  -74.3407 S.3       11 UNK        -0.2615 
     17 C17       -73.6808   32.2826  -74.5122 C.3       11 UNK        -0.0865 
     18 CA        -72.1927   31.8418  -74.5027 C.3       10 UNK         0.0862 
     19 C         -71.6957   31.4470  -73.0834 C.2       10 UNK         0.5551 
     20 N         -71.4351   32.4277  -72.2295 N.am      10 UNK        -0.7319 
     21 O         -71.5760   30.2734  -72.7368 O.2       10 UNK        -0.5018 
     22 N         -71.9444   30.8022  -75.5061 N.am      10 UNK        -0.4509 
     23 C         -70.7513   30.5025  -76.0278 C.2       10 UNK         0.4899 
     24 O         -69.7158   31.1305  -75.7990 O.2       10 UNK        -0.4839 
     25 CA        -70.7430   29.2861  -76.9652 C.3       9 UNK         0.0222 
     26 CB        -69.3881   29.0542  -77.6691 C.3       9 UNK        -0.1966 
     27 N         -71.2118   28.0828  -76.2702 N.am      9 UNK        -0.4218 
     28 C         -70.6019   27.4102  -75.2780 C.2       9 UNK         0.5020 
     29 O         -69.5077   27.7212  -74.8051 O.2       9 UNK        -0.5274 
     30 CA        -71.3175   26.1628  -74.7116 C.3       8 UNK         0.0270 
     31 CB        -71.8656   26.4598  -73.3057 C.3       8 UNK        -0.1976 
     32 N         -72.4096   25.6652  -75.5551 N.am      8 UNK        -0.4313 
     33 C         -72.2637   25.1823  -76.7995 C.2       8 UNK         0.5041 
     34 O         -71.1672   24.9236  -77.2974 O.2       8 UNK        -0.5577 
     35 CA        -73.5288   25.0040  -77.6656 C.3       7 UNK         0.0284 
     36 CB        -73.8100   23.5108  -77.9008 C.3       7 UNK        -0.1958 
     37 N         -74.7417   25.6470  -77.1453 N.am      7 UNK        -0.4454 
     38 C         -74.9030   26.9453  -76.8469 C.2       7 UNK         0.5089 
     39 O         -74.0429   27.8047  -77.0481 O.2       7 UNK        -0.5125 
     40 CA        -76.2110   27.3334  -76.1289 C.3       6 UNK         0.0408 
     41 CB        -77.2622   27.8124  -77.1399 C.3       6 UNK        -0.1791 
     42 N         -76.7806   26.2596  -75.3030 N.am      6 UNK        -0.4762 
     43 C         -76.1583   25.6614  -74.2729 C.2       6 UNK         0.5007 
     44 O         -75.0094   25.9269  -73.9196 O.2       6 UNK        -0.5032 
     45 CA        -76.9329   24.5318  -73.5690 C.3       5 UNK         0.0783 
     46 C46       -78.0839   25.0828  -72.6849 C.3       11 UNK        -0.0857 
     47 S47       -77.6770   25.1436  -70.9071 S.3       11 UNK        -0.2512 
     48 C48       -76.4798   26.5220  -70.7814 C.3       11 UNK         0.0225 
     49 N         -77.4227   23.5890  -74.5749 N.am      5 UNK        -0.4615 
     50 C         -76.6808   22.6234  -75.1344 C.2       4 UNK         0.5053 
     51 O         -75.5376   22.3480  -74.7723 O.2       4 UNK        -0.5105 
     52 CA        -77.3049   21.8310  -76.2997 C.3       4 UNK         0.0263 
     53 CB        -77.8507   20.4843  -75.7985 C.3       4 UNK        -0.1981 
     54 N         -78.3741   22.5512  -76.9967 N.am      4 UNK        -0.4224 
     55 C         -78.2066   23.6725  -77.7131 C.2       3 UNK         0.4895 
     56 O         -77.1126   24.1914  -77.9243 O.2       3 UNK        -0.5091 
     57 CA        -79.4811   24.3678  -78.2238 C.3       3 UNK         0.0250 
     58 CB        -79.8449   23.8609  -79.6280 C.3       3 UNK        -0.1996 
     59 N         -80.6336   24.2095  -77.3280 N.am      3 UNK        -0.4254 
     60 C         -80.6743   24.6258  -76.0544 C.2       2 UNK         0.5004 
     61 O         -79.7342   25.1902  -75.4864 O.2       2 UNK        -0.5226 
     62 CA        -81.9380   24.2567  -75.2623 C.3       2 UNK         0.0269 
     63 CB        -81.7820   22.8537  -74.6513 C.3       2 UNK        -0.1926 
     64 N         -82.2019   25.2096  -74.1846 N.am      2 UNK        -0.4687 
     65 C         -82.6750   26.4525  -74.3587 C.2       1 UNK         0.5165 
     66 O         -83.0133   26.8958  -75.4580 O.2       1 UNK        -0.5079 
     67 H67       -81.1383   26.8604  -69.0404 H         1 UNK         0.0900 
     68 H68       -80.6128   25.6310  -70.1954 H         1 UNK         0.0900 
     69 H69       -81.9636   25.3010  -69.1148 H         1 UNK         0.0900 
     70 H70       -81.0767   26.5499  -72.2153 H         1 UNK         0.2959 
     71 H71       -83.8787   27.2526  -72.8464 H         1 UNK         0.1079 
     72 H72       -83.1243   29.2131  -74.1738 H         1 UNK         0.0837 
     73 H73       -82.8440   29.4179  -72.4765 H         1 UNK         0.0837 
     74 H74       -80.7531   29.2820  -71.2695 H         1 UNK         0.0685 
     75 H75       -80.3692   30.8357  -71.9723 H         1 UNK         0.0685 
     76 H76       -79.0686   27.5172  -71.0641 H         1 UNK         0.1434 
     77 H77       -74.9472   28.5719  -71.6418 H         1 UNK         0.1329 
     78 H78       -78.0463   31.3359  -72.7011 H         1 UNK         0.1335 
     79 H79       -75.7120   32.0991  -72.4154 H         1 UNK         0.0680 
     80 H80       -74.4483   30.9765  -71.9683 H         1 UNK         0.0680 
     81 H81       -73.8664   33.0421  -73.7505 H         1 UNK         0.1032 
     82 H82       -73.8948   32.7781  -75.4605 H         1 UNK         0.1032 
     83 H83       -71.6050   32.7126  -74.8017 H         1 UNK         0.0461 
     84 H84       -71.5282   33.3951  -72.4974 H         1 UNK         0.3453 
     85 H85       -71.1219   32.1949  -71.3001 H         1 UNK         0.3453 
     86 H86       -72.7332   30.2059  -75.7135 H         1 UNK         0.2984 
     87 H87       -71.4793   29.4892  -77.7445 H         1 UNK         0.0554 
     88 H88       -69.4279   28.1879  -78.3294 H         1 UNK         0.0847 
     89 H89       -68.5760   28.8974  -76.9589 H         1 UNK         0.0847 
     90 H90       -69.1178   29.9164  -78.2798 H         1 UNK         0.0847 
     91 H91       -72.1409   27.7723  -76.5429 H         1 UNK         0.3141 
     92 H92       -70.5723   25.3690  -74.6306 H         1 UNK         0.0743 
     93 H93       -72.6124   27.2553  -73.3261 H         1 UNK         0.0784 
     94 H94       -72.3270   25.5773  -72.8621 H         1 UNK         0.0784 
     95 H95       -71.0685   26.7820  -72.6344 H         1 UNK         0.0784 
     96 H96       -73.3492   25.8097  -75.1979 H         1 UNK         0.3213 
     97 H97       -73.3143   25.4663  -78.6311 H         1 UNK         0.0855 
     98 H98       -74.0641   22.9993  -76.9724 H         1 UNK         0.0814 
     99 H99       -72.9374   23.0083  -78.3205 H         1 UNK         0.0814 
    100 H100      -74.6309   23.3647  -78.6029 H         1 UNK         0.0814 
    101 H101      -75.5534   25.0458  -77.0391 H         1 UNK         0.3105 
    102 H102      -75.9806   28.1638  -75.4584 H         1 UNK         0.0547 
    103 H103      -76.8912   28.6655  -77.7095 H         1 UNK         0.0837 
    104 H104      -77.5178   27.0304  -77.8547 H         1 UNK         0.0837 
    105 H105      -78.1790   28.1292  -76.6418 H         1 UNK         0.0837 
    106 H106      -77.7290   25.9715  -75.5196 H         1 UNK         0.3020 
    107 H107      -76.2227   24.0000  -72.9309 H         1 UNK         0.1245 
    108 H108      -78.4464   26.0532  -73.0279 H         1 UNK         0.0781 
    109 H109      -78.9533   24.4273  -72.7582 H         1 UNK         0.0781 
    110 H110      -76.2095   26.6404  -69.7315 H         1 UNK         0.0836 
    111 H111      -75.5641   26.2275  -71.2957 H         1 UNK         0.0836 
    112 H112      -78.3361   23.7968  -74.9608 H         1 UNK         0.3022 
    113 H113      -76.5093   21.6334  -77.0214 H         1 UNK         0.0747 
    114 H114      -78.2220   19.8743  -76.6223 H         1 UNK         0.0793 
    115 H115      -77.0701   19.9087  -75.2988 H         1 UNK         0.0793 
    116 H116      -78.6642   20.6182  -75.0842 H         1 UNK         0.0793 
    117 H117      -79.3110   22.1932  -76.8850 H         1 UNK         0.3047 
    118 H118      -79.2655   25.4356  -78.2920 H         1 UNK         0.0822 
    119 H119      -80.1029   22.8011  -79.6229 H         1 UNK         0.0807 
    120 H120      -79.0087   23.9893  -80.3171 H         1 UNK         0.0807 
    121 H121      -80.6899   24.4111  -80.0426 H         1 UNK         0.0807 
    122 H122      -81.4410   23.7406  -77.7140 H         1 UNK         0.2946 
    123 H123      -82.7936   24.2572  -75.9419 H         1 UNK         0.1144 
    124 H124      -81.6281   22.1008  -75.4255 H         1 UNK         0.0793 
    125 H125      -82.6735   22.5621  -74.0956 H         1 UNK         0.0793 
    126 H126      -80.9309   22.8002  -73.9707 H         1 UNK         0.0793 
    127 H127      -81.9644   24.9149  -73.2495 H         1 UNK         0.2896 
@<TRIPOS>BOND
     1    1    2 1    
     2    1   67 1    
     3    1   68 1    
     4    1   69 1    
     5    2    3 2    
     6    2    4 am   BACKBONE|DICT|INTERRES
     7    4    5 1    
     8    4   70 1    
     9    5    6 1    
    10    5   65 1    
    11    5   71 1    
    12    6    7 1    
    13    6   72 1    
    14    6   73 1    
    15    7    8 1    
    16    8    9 1    
    17    8   74 1    
    18    8   75 1    
    19    9   10 ar   
    20    9   14 ar   
    21   10   11 ar   
    22   10   76 1    
    23   11   12 ar   
    24   11   48 1    
    25   12   13 ar   
    26   12   77 1    
    27   13   14 ar   
    28   13   15 1    
    29   14   78 1    
    30   15   16 1    
    31   15   79 1    
    32   15   80 1    
    33   16   17 1    
    34   17   18 1    
    35   17   81 1    
    36   17   82 1    
    37   18   19 1    
    38   18   22 1    
    39   18   83 1    
    40   19   20 am   BACKBONE|DICT|INTERRES
    41   19   21 2    
    42   20   84 1    
    43   20   85 1    
    44   22   23 am   BACKBONE|DICT|INTERRES
    45   22   86 1    
    46   23   24 2    
    47   23   25 1    
    48   25   26 1    
    49   25   27 1    
    50   25   87 1    
    51   26   88 1    
    52   26   89 1    
    53   26   90 1    
    54   27   28 am   BACKBONE|DICT|INTERRES
    55   27   91 1    
    56   28   29 2    
    57   28   30 1    
    58   30   31 1    
    59   30   32 1    
    60   30   92 1    
    61   31   93 1    
    62   31   94 1    
    63   31   95 1    
    64   32   33 am   BACKBONE|DICT|INTERRES
    65   32   96 1    
    66   33   34 2    
    67   33   35 1    
    68   35   36 1    
    69   35   37 1    
    70   35   97 1    
    71   36   98 1    
    72   36   99 1    
    73   36  100 1    
    74   37   38 am   BACKBONE|DICT|INTERRES
    75   37  101 1    
    76   38   39 2    
    77   38   40 1    
    78   40   41 1    
    79   40   42 1    
    80   40  102 1    
    81   41  103 1    
    82   41  104 1    
    83   41  105 1    
    84   42   43 am   BACKBONE|DICT|INTERRES
    85   42  106 1    
    86   43   44 2    
    87   43   45 1    
    88   45   46 1    
    89   45   49 1    
    90   45  107 1    
    91   46   47 1    
    92   46  108 1    
    93   46  109 1    
    94   47   48 1    
    95   48  110 1    
    96   48  111 1    
    97   49   50 am   BACKBONE|DICT|INTERRES
    98   49  112 1    
    99   50   51 2    
   100   50   52 1    
   101   52   53 1    
   102   52   54 1    
   103   52  113 1    
   104   53  114 1    
   105   53  115 1    
   106   53  116 1    
   107   54   55 am   BACKBONE|DICT|INTERRES
   108   54  117 1    
   109   55   56 2    
   110   55   57 1    
   111   57   58 1    
   112   57   59 1    
   113   57  118 1    
   114   58  119 1    
   115   58  120 1    
   116   58  121 1    
   117   59   60 am   BACKBONE|DICT|INTERRES
   118   59  122 1    
   119   60   61 2    
   120   60   62 1    
   121   62   63 1    
   122   62   64 1    
   123   62  123 1    
   124   63  124 1    
   125   63  125 1    
   126   63  126 1    
   127   64   65 am   BACKBONE|DICT|INTERRES
   128   64  127 1    
   129   65   66 2    
@<TRIPOS>SUBSTRUCTURE
     1 UNK         1 GROUP             0       ****    0 ROOT    
