@<TRIPOS>MOLECULE
3R135
127   129    1
SMALL
USER_CHARGES


@<TRIPOS>ATOM
      1 CA        -82.2406   26.0066  -73.1241 C.3       0 UNK        -0.1998 
      2 C         -81.6575   26.5795  -74.4067 C.2       0 UNK         0.4909 
      3 O         -82.3419   26.6220  -75.4295 O.2       0 UNK        -0.5240 
      4 N         -80.3910   27.0068  -74.3604 N.am      1 UNK        -0.4739 
      5 CA        -79.6317   27.5994  -75.4634 C.3       1 UNK         0.0864 
      6 C6        -78.3333   28.2680  -74.9422 C.3       11 UNK        -0.0881 
      7 S7        -78.6485   29.8617  -74.1108 S.3       11 UNK        -0.2682 
      8 C8        -78.9944   29.3888  -72.3845 C.3       11 UNK         0.0289 
      9 C9        -77.8110   28.7219  -71.6974 C.ar      11 UNK        -0.0687 
     10 C10       -77.8468   27.3573  -71.3953 C.ar      11 UNK        -0.0823 
     11 C11       -76.7827   26.7476  -70.7244 C.ar      11 UNK        -0.0830 
     12 C12       -75.6773   27.5183  -70.3481 C.ar      11 UNK        -0.1021 
     13 C13       -75.6227   28.8801  -70.6590 C.ar      11 UNK        -0.0753 
     14 C14       -76.6934   29.4771  -71.3312 C.ar      11 UNK        -0.0933 
     15 C15       -74.4099   29.7081  -70.2676 C.3       11 UNK         0.0166 
     16 S16       -73.0617   29.4952  -71.4683 S.3       11 UNK        -0.2615 
     17 C17       -71.9651   30.8788  -71.0039 C.3       11 UNK        -0.0865 
     18 CA        -72.1588   32.1222  -71.9256 C.3       10 UNK         0.0862 
     19 C         -71.3634   33.3839  -71.4629 C.2       10 UNK         0.5551 
     20 N         -71.2233   33.6135  -70.1633 N.am      10 UNK        -0.7319 
     21 O         -70.9150   34.1970  -72.2700 O.2       10 UNK        -0.5018 
     22 N         -71.9714   31.8020  -73.3525 N.am      10 UNK        -0.4509 
     23 C         -70.8258   31.4346  -73.9389 C.2       10 UNK         0.4899 
     24 O         -69.7564   31.2819  -73.3450 O.2       10 UNK        -0.4839 
     25 CA        -70.9065   31.1439  -75.4459 C.3       9 UNK         0.0222 
     26 CB        -69.5743   31.4275  -76.1647 C.3       9 UNK        -0.1966 
     27 N         -71.2779   29.7459  -75.6572 N.am      9 UNK        -0.4218 
     28 C         -72.5288   29.2713  -75.6161 C.2       9 UNK         0.5020 
     29 O         -73.5287   29.9750  -75.4469 O.2       9 UNK        -0.5274 
     30 CA        -72.6742   27.7453  -75.7544 C.3       8 UNK         0.0270 
     31 CB        -72.6337   27.0791  -74.3696 C.3       8 UNK        -0.1976 
     32 N         -73.9132   27.3619  -76.4335 N.am      8 UNK        -0.4313 
     33 C         -74.2013   27.6270  -77.7145 C.2       8 UNK         0.5041 
     34 O         -73.4141   28.1646  -78.4973 O.2       8 UNK        -0.5577 
     35 CA        -75.6083   27.2142  -78.1887 C.3       7 UNK         0.0284 
     36 CB        -75.8184   27.3912  -79.7080 C.3       7 UNK        -0.1958 
     37 N         -75.9801   25.8591  -77.7651 N.am      7 UNK        -0.4454 
     38 C         -75.3830   24.7052  -78.0902 C.2       7 UNK         0.5089 
     39 O         -74.3828   24.6175  -78.8053 O.2       7 UNK        -0.5125 
     40 CA        -76.0420   23.4350  -77.5143 C.3       6 UNK         0.0408 
     41 CB        -75.3046   22.1417  -77.9213 C.3       6 UNK        -0.1791 
     42 N         -76.2294   23.4763  -76.0571 N.am      6 UNK        -0.4762 
     43 C         -75.2869   23.6460  -75.1158 C.2       6 UNK         0.5007 
     44 O         -74.1068   23.8810  -75.3750 O.2       6 UNK        -0.5032 
     45 CA        -75.6906   23.4507  -73.6358 C.3       5 UNK         0.0783 
     46 C46       -75.3545   24.6946  -72.7692 C.3       11 UNK        -0.0857 
     47 S47       -75.3857   24.3308  -70.9808 S.3       11 UNK        -0.2512 
     48 C48       -76.8454   25.2584  -70.4023 C.3       11 UNK         0.0225 
     49 N         -77.0494   22.9066  -73.4614 N.am      5 UNK        -0.4615 
     50 C         -78.2152   23.5621  -73.5122 C.2       4 UNK         0.5053 
     51 O         -78.3367   24.7801  -73.6263 O.2       4 UNK        -0.5105 
     52 CA        -79.4779   22.7062  -73.4222 C.3       4 UNK         0.0263 
     53 CB        -80.1758   22.8973  -72.0631 C.3       4 UNK        -0.1981 
     54 N         -80.3650   23.0906  -74.5185 N.am      4 UNK        -0.4224 
     55 C         -81.2996   22.2975  -75.0593 C.2       3 UNK         0.4895 
     56 O         -81.5285   21.1540  -74.6628 O.2       3 UNK        -0.5091 
     57 CA        -82.1327   22.8481  -76.2313 C.3       3 UNK         0.0250 
     58 CB        -83.5539   23.2096  -75.7673 C.3       3 UNK        -0.1996 
     59 N         -81.5348   24.0105  -76.8931 N.am      3 UNK        -0.4254 
     60 C         -80.6037   23.9382  -77.8567 C.2       2 UNK         0.5004 
     61 O         -80.1151   22.8831  -78.2605 O.2       2 UNK        -0.5226 
     62 CA        -80.1368   25.2681  -78.4767 C.3       2 UNK         0.0269 
     63 CB        -80.9849   25.6178  -79.7097 C.3       2 UNK        -0.1926 
     64 N         -80.1919   26.3746  -77.5187 N.am      2 UNK        -0.4687 
     65 C         -79.3244   26.5140  -76.5099 C.2       1 UNK         0.5165 
     66 O         -78.3373   25.7927  -76.3730 O.2       1 UNK        -0.5079 
     67 H67       -83.2244   26.4357  -72.9357 H         1 UNK         0.0900 
     68 H68       -82.3501   24.9263  -73.2041 H         1 UNK         0.0900 
     69 H69       -81.6102   26.2220  -72.2616 H         1 UNK         0.0900 
     70 H70       -79.8464   26.8341  -73.5285 H         1 UNK         0.2959 
     71 H71       -80.2480   28.3636  -75.9425 H         1 UNK         0.1079 
     72 H72       -77.6611   28.4911  -75.7722 H         1 UNK         0.0837 
     73 H73       -77.7758   27.5965  -74.2863 H         1 UNK         0.0837 
     74 H74       -79.8785   28.7525  -72.3471 H         1 UNK         0.0685 
     75 H75       -79.2583   30.2904  -71.8299 H         1 UNK         0.0685 
     76 H76       -78.7059   26.7657  -71.6780 H         1 UNK         0.1434 
     77 H77       -74.8500   27.0539  -69.8288 H         1 UNK         0.1329 
     78 H78       -76.6600   30.5313  -71.5706 H         1 UNK         0.1335 
     79 H79       -74.0622   29.4181  -69.2749 H         1 UNK         0.0680 
     80 H80       -74.6806   30.7635  -70.2070 H         1 UNK         0.0680 
     81 H81       -72.1519   31.1253  -69.9582 H         1 UNK         0.1032 
     82 H82       -70.9321   30.5300  -71.0453 H         1 UNK         0.1032 
     83 H83       -73.2044   32.4218  -71.8459 H         1 UNK         0.0461 
     84 H84       -70.7272   34.4401  -69.8677 H         1 UNK         0.3453 
     85 H85       -71.6074   32.9904  -69.4716 H         1 UNK         0.3453 
     86 H86       -72.8031   31.8504  -73.9247 H         1 UNK         0.2984 
     87 H87       -71.6654   31.7944  -75.8867 H         1 UNK         0.0554 
     88 H88       -69.2617   32.4608  -76.0085 H         1 UNK         0.0847 
     89 H89       -69.6651   31.2768  -77.2406 H         1 UNK         0.0847 
     90 H90       -68.7689   30.7862  -75.8040 H         1 UNK         0.0847 
     91 H91       -70.5148   29.0915  -75.7571 H         1 UNK         0.3141 
     92 H92       -71.8392   27.3670  -76.3481 H         1 UNK         0.0743 
     93 H93       -73.4919   27.3653  -73.7594 H         1 UNK         0.0784 
     94 H94       -72.6239   25.9927  -74.4543 H         1 UNK         0.0784 
     95 H95       -71.7364   27.3661  -73.8194 H         1 UNK         0.0784 
     96 H96       -74.6174   26.9114  -75.8689 H         1 UNK         0.3213 
     97 H97       -76.3022   27.8905  -77.6886 H         1 UNK         0.0855 
     98 H98       -75.1289   26.7765  -80.2875 H         1 UNK         0.0814 
     99 H99       -75.6562   28.4278  -80.0058 H         1 UNK         0.0814 
    100 H100      -76.8340   27.1257  -80.0014 H         1 UNK         0.0814 
    101 H101      -76.8041   25.7960  -77.1634 H         1 UNK         0.3105 
    102 H102      -77.0427   23.3897  -77.9473 H         1 UNK         0.0547 
    103 H103      -75.8211   21.2566  -77.5505 H         1 UNK         0.0837 
    104 H104      -74.2836   22.1202  -77.5386 H         1 UNK         0.0837 
    105 H105      -75.2466   22.0504  -79.0066 H         1 UNK         0.0837 
    106 H106      -77.1815   23.3665  -75.7385 H         1 UNK         0.3020 
    107 H107      -75.0303   22.6514  -73.2940 H         1 UNK         0.1245 
    108 H108      -76.0035   25.5358  -73.0121 H         1 UNK         0.0781 
    109 H109      -74.3430   25.0421  -72.9824 H         1 UNK         0.0781 
    110 H110      -76.9316   25.1371  -69.3219 H         1 UNK         0.0836 
    111 H111      -77.7388   24.8043  -70.8319 H         1 UNK         0.0836 
    112 H112      -77.0809   21.9027  -73.3486 H         1 UNK         0.3022 
    113 H113      -79.2043   21.6549  -73.5370 H         1 UNK         0.0747 
    114 H114      -81.0898   22.3070  -71.9961 H         1 UNK         0.0793 
    115 H115      -79.5259   22.5817  -71.2460 H         1 UNK         0.0793 
    116 H116      -80.4358   23.9408  -71.8854 H         1 UNK         0.0793 
    117 H117      -80.1845   24.0035  -74.9156 H         1 UNK         0.3047 
    118 H118      -82.2215   22.0401  -76.9612 H         1 UNK         0.0822 
    119 H119      -84.1842   23.4911  -76.6111 H         1 UNK         0.0807 
    120 H120      -83.5553   24.0389  -75.0609 H         1 UNK         0.0807 
    121 H121      -84.0342   22.3619  -75.2763 H         1 UNK         0.0807 
    122 H122      -81.8730   24.9239  -76.6084 H         1 UNK         0.2946 
    123 H123      -79.1017   25.1346  -78.8014 H         1 UNK         0.1144 
    124 H124      -80.6219   26.5234  -80.1962 H         1 UNK         0.0793 
    125 H125      -82.0332   25.7721  -79.4503 H         1 UNK         0.0793 
    126 H126      -80.9462   24.8166  -80.4493 H         1 UNK         0.0793 
    127 H127      -81.0096   26.9693  -77.5461 H         1 UNK         0.2896 
@<TRIPOS>BOND
     1    1    2 1    
     2    1   67 1    
     3    1   68 1    
     4    1   69 1    
     5    2    3 2    
     6    2    4 am   BACKBONE|DICT|INTERRES
     7    4    5 1    
     8    4   70 1    
     9    5    6 1    
    10    5   65 1    
    11    5   71 1    
    12    6    7 1    
    13    6   72 1    
    14    6   73 1    
    15    7    8 1    
    16    8    9 1    
    17    8   74 1    
    18    8   75 1    
    19    9   10 ar   
    20    9   14 ar   
    21   10   11 ar   
    22   10   76 1    
    23   11   12 ar   
    24   11   48 1    
    25   12   13 ar   
    26   12   77 1    
    27   13   14 ar   
    28   13   15 1    
    29   14   78 1    
    30   15   16 1    
    31   15   79 1    
    32   15   80 1    
    33   16   17 1    
    34   17   18 1    
    35   17   81 1    
    36   17   82 1    
    37   18   19 1    
    38   18   22 1    
    39   18   83 1    
    40   19   20 am   BACKBONE|DICT|INTERRES
    41   19   21 2    
    42   20   84 1    
    43   20   85 1    
    44   22   23 am   BACKBONE|DICT|INTERRES
    45   22   86 1    
    46   23   24 2    
    47   23   25 1    
    48   25   26 1    
    49   25   27 1    
    50   25   87 1    
    51   26   88 1    
    52   26   89 1    
    53   26   90 1    
    54   27   28 am   BACKBONE|DICT|INTERRES
    55   27   91 1    
    56   28   29 2    
    57   28   30 1    
    58   30   31 1    
    59   30   32 1    
    60   30   92 1    
    61   31   93 1    
    62   31   94 1    
    63   31   95 1    
    64   32   33 am   BACKBONE|DICT|INTERRES
    65   32   96 1    
    66   33   34 2    
    67   33   35 1    
    68   35   36 1    
    69   35   37 1    
    70   35   97 1    
    71   36   98 1    
    72   36   99 1    
    73   36  100 1    
    74   37   38 am   BACKBONE|DICT|INTERRES
    75   37  101 1    
    76   38   39 2    
    77   38   40 1    
    78   40   41 1    
    79   40   42 1    
    80   40  102 1    
    81   41  103 1    
    82   41  104 1    
    83   41  105 1    
    84   42   43 am   BACKBONE|DICT|INTERRES
    85   42  106 1    
    86   43   44 2    
    87   43   45 1    
    88   45   46 1    
    89   45   49 1    
    90   45  107 1    
    91   46   47 1    
    92   46  108 1    
    93   46  109 1    
    94   47   48 1    
    95   48  110 1    
    96   48  111 1    
    97   49   50 am   BACKBONE|DICT|INTERRES
    98   49  112 1    
    99   50   51 2    
   100   50   52 1    
   101   52   53 1    
   102   52   54 1    
   103   52  113 1    
   104   53  114 1    
   105   53  115 1    
   106   53  116 1    
   107   54   55 am   BACKBONE|DICT|INTERRES
   108   54  117 1    
   109   55   56 2    
   110   55   57 1    
   111   57   58 1    
   112   57   59 1    
   113   57  118 1    
   114   58  119 1    
   115   58  120 1    
   116   58  121 1    
   117   59   60 am   BACKBONE|DICT|INTERRES
   118   59  122 1    
   119   60   61 2    
   120   60   62 1    
   121   62   63 1    
   122   62   64 1    
   123   62  123 1    
   124   63  124 1    
   125   63  125 1    
   126   63  126 1    
   127   64   65 am   BACKBONE|DICT|INTERRES
   128   64  127 1    
   129   65   66 2    
@<TRIPOS>SUBSTRUCTURE
     1 UNK         1 GROUP             0       ****    0 ROOT    
