@<TRIPOS>MOLECULE
3R135
127   129    1
SMALL
USER_CHARGES


@<TRIPOS>ATOM
      1 CA        -82.4944   31.3109  -77.3145 C.3       0 UNK        -0.1998 
      2 C         -81.5476   30.1506  -77.5838 C.2       0 UNK         0.4909 
      3 O         -81.6078   29.5508  -78.6575 O.2       0 UNK        -0.5240 
      4 N         -80.6692   29.8444  -76.6218 N.am      1 UNK        -0.4739 
      5 CA        -79.7203   28.7298  -76.6556 C.3       1 UNK         0.0864 
      6 C6        -78.4049   29.0581  -75.8961 C.3       11 UNK        -0.0881 
      7 S7        -78.6240   29.7973  -74.2363 S.3       11 UNK        -0.2682 
      8 C8        -76.8926   29.8858  -73.6863 C.3       11 UNK         0.0289 
      9 C9        -76.5895   28.9138  -72.5553 C.ar      11 UNK        -0.0687 
     10 C10       -76.6677   27.5315  -72.7583 C.ar      11 UNK        -0.0823 
     11 C11       -76.3189   26.6452  -71.7332 C.ar      11 UNK        -0.0830 
     12 C12       -75.8909   27.1508  -70.5022 C.ar      11 UNK        -0.1021 
     13 C13       -75.8142   28.5288  -70.2861 C.ar      11 UNK        -0.0753 
     14 C14       -76.1771   29.4041  -71.3126 C.ar      11 UNK        -0.0933 
     15 C15       -75.3430   29.0624  -68.9411 C.3       11 UNK         0.0166 
     16 S16       -73.5295   29.2261  -68.8697 S.3       11 UNK        -0.2615 
     17 C17       -73.2734   30.8951  -69.5741 C.3       11 UNK        -0.0865 
     18 CA        -72.0082   31.0376  -70.4704 C.3       10 UNK         0.0862 
     19 C         -70.6776   30.9407  -69.6768 C.2       10 UNK         0.5551 
     20 N         -70.4310   31.8675  -68.7608 N.am      10 UNK        -0.7319 
     21 O         -69.8641   30.0405  -69.8843 O.2       10 UNK        -0.5018 
     22 N         -72.0005   30.1266  -71.6200 N.am      10 UNK        -0.4509 
     23 C         -72.8055   30.1988  -72.6825 C.2       10 UNK         0.4899 
     24 O         -73.6987   31.0406  -72.8069 O.2       10 UNK        -0.4839 
     25 CA        -72.5555   29.1467  -73.7821 C.3       9 UNK         0.0222 
     26 CB        -72.8618   27.7269  -73.2756 C.3       9 UNK        -0.1966 
     27 N         -73.3542   29.3970  -74.9826 N.am      9 UNK        -0.4218 
     28 C         -73.1607   30.3879  -75.8599 C.2       9 UNK         0.5020 
     29 O         -72.1858   31.1428  -75.8357 O.2       9 UNK        -0.5274 
     30 CA        -74.2388   30.5464  -76.9533 C.3       8 UNK         0.0270 
     31 CB        -74.0361   31.8143  -77.8046 C.3       8 UNK        -0.1976 
     32 N         -74.3194   29.3862  -77.8456 N.am      8 UNK        -0.4313 
     33 C         -74.8291   28.1904  -77.5292 C.2       8 UNK         0.5041 
     34 O         -75.2815   27.9057  -76.4149 O.2       8 UNK        -0.5577 
     35 CA        -74.8137   27.1293  -78.6336 C.3       7 UNK         0.0284 
     36 CB        -73.3983   26.5490  -78.8179 C.3       7 UNK        -0.1958 
     37 N         -75.7373   26.0732  -78.2424 N.am      7 UNK        -0.4454 
     38 C         -76.2773   25.1420  -79.0350 C.2       7 UNK         0.5089 
     39 O         -76.0889   25.0889  -80.2516 O.2       7 UNK        -0.5125 
     40 CA        -77.1790   24.0971  -78.3424 C.3       6 UNK         0.0408 
     41 CB        -77.2998   22.7830  -79.1414 C.3       6 UNK        -0.1791 
     42 N         -76.7903   23.8269  -76.9514 N.am      6 UNK        -0.4762 
     43 C         -75.6123   23.3504  -76.5099 C.2       6 UNK         0.5007 
     44 O         -74.6810   23.0201  -77.2444 O.2       6 UNK        -0.5032 
     45 CA        -75.4456   23.2281  -74.9873 C.3       5 UNK         0.0783 
     46 C46       -75.0758   24.6017  -74.3747 C.3       11 UNK        -0.0857 
     47 S47       -74.8076   24.4901  -72.5745 S.3       11 UNK        -0.2512 
     48 C48       -76.3856   25.1409  -71.9441 C.3       11 UNK         0.0225 
     49 N         -76.6665   22.6621  -74.4078 N.am      5 UNK        -0.4615 
     50 C         -76.7669   21.4334  -73.8844 C.2       4 UNK         0.5053 
     51 O         -75.8217   20.6524  -73.7703 O.2       4 UNK        -0.5105 
     52 CA        -78.1647   20.9877  -73.4125 C.3       4 UNK         0.0263 
     53 CB        -78.3400   21.2823  -71.9138 C.3       4 UNK        -0.1981 
     54 N         -79.2541   21.6234  -74.1576 N.am      4 UNK        -0.4224 
     55 C         -79.4814   21.4663  -75.4697 C.2       3 UNK         0.4895 
     56 O         -78.8822   20.6539  -76.1744 O.2       3 UNK        -0.5091 
     57 CA        -80.5312   22.3856  -76.1207 C.3       3 UNK         0.0250 
     58 CB        -81.8132   21.5965  -76.4338 C.3       3 UNK        -0.1996 
     59 N         -80.8856   23.5878  -75.3528 N.am      3 UNK        -0.4254 
     60 C         -80.0495   24.5754  -75.0026 C.2       2 UNK         0.5004 
     61 O         -78.8258   24.5384  -75.1647 O.2       2 UNK        -0.5226 
     62 CA        -80.6854   25.8021  -74.3298 C.3       2 UNK         0.0269 
     63 CB        -80.3875   25.8119  -72.8223 C.3       2 UNK        -0.1926 
     64 N         -80.1969   27.0462  -74.9244 N.am      2 UNK        -0.4687 
     65 C         -80.4126   27.4321  -76.1894 C.2       1 UNK         0.5165 
     66 O         -81.1266   26.8067  -76.9754 O.2       1 UNK        -0.5079 
     67 H67       -83.5279   30.9674  -77.3496 H         1 UNK         0.0900 
     68 H68       -82.3659   32.0838  -78.0717 H         1 UNK         0.0900 
     69 H69       -82.3200   31.7616  -76.3376 H         1 UNK         0.0900 
     70 H70       -80.6695   30.3715  -75.7591 H         1 UNK         0.2959 
     71 H71       -79.4377   28.5496  -77.6957 H         1 UNK         0.1079 
     72 H72       -77.7819   28.1661  -75.8144 H         1 UNK         0.0837 
     73 H73       -77.8222   29.7634  -76.4912 H         1 UNK         0.0837 
     74 H74       -76.2184   29.6785  -74.5161 H         1 UNK         0.0685 
     75 H75       -76.6814   30.9115  -73.3799 H         1 UNK         0.0685 
     76 H76       -76.9834   27.1508  -73.7191 H         1 UNK         0.1434 
     77 H77       -75.6065   26.4694  -69.7118 H         1 UNK         0.1329 
     78 H78       -76.1133   30.4714  -71.1544 H         1 UNK         0.1335 
     79 H79       -75.6606   28.3823  -68.1491 H         1 UNK         0.0680 
     80 H80       -75.8144   30.0212  -68.7194 H         1 UNK         0.0680 
     81 H81       -73.2415   31.6101  -68.7507 H         1 UNK         0.1032 
     82 H82       -74.1502   31.1783  -70.1547 H         1 UNK         0.1032 
     83 H83       -72.0147   32.0466  -70.8876 H         1 UNK         0.0461 
     84 H84       -71.0803   32.6185  -68.5864 H         1 UNK         0.3453 
     85 H85       -69.5711   31.8193  -68.2367 H         1 UNK         0.3453 
     86 H86       -71.2734   29.4242  -71.5795 H         1 UNK         0.2984 
     87 H87       -71.5008   29.1952  -74.0601 H         1 UNK         0.0554 
     88 H88       -72.6926   26.9807  -74.0519 H         1 UNK         0.0847 
     89 H89       -73.8951   27.6349  -72.9450 H         1 UNK         0.0847 
     90 H90       -72.2298   27.4574  -72.4290 H         1 UNK         0.0847 
     91 H91       -74.1596   28.7961  -75.1385 H         1 UNK         0.3141 
     92 H92       -75.1982   30.6503  -76.4428 H         1 UNK         0.0743 
     93 H93       -74.8521   31.9509  -78.5147 H         1 UNK         0.0784 
     94 H94       -74.0053   32.7054  -77.1759 H         1 UNK         0.0784 
     95 H95       -73.1023   31.7797  -78.3673 H         1 UNK         0.0784 
     96 H96       -73.9343   29.5134  -78.7708 H         1 UNK         0.3213 
     97 H97       -75.1597   27.5832  -79.5647 H         1 UNK         0.0855 
     98 H98       -73.0345   26.0833  -77.9008 H         1 UNK         0.0814 
     99 H99       -72.6842   27.3243  -79.0974 H         1 UNK         0.0814 
    100 H100      -73.3762   25.7945  -79.6043 H         1 UNK         0.0814 
    101 H101      -75.9753   26.0934  -77.2579 H         1 UNK         0.3105 
    102 H102      -78.1733   24.5434  -78.2925 H         1 UNK         0.0547 
    103 H103      -77.7318   22.9620  -80.1265 H         1 UNK         0.0837 
    104 H104      -76.3285   22.3119  -79.2939 H         1 UNK         0.0837 
    105 H105      -77.9434   22.0661  -78.6314 H         1 UNK         0.0837 
    106 H106      -77.4917   24.0905  -76.2600 H         1 UNK         0.3020 
    107 H107      -74.6039   22.5525  -74.8168 H         1 UNK         0.1245 
    108 H108      -75.8415   25.3476  -74.5915 H         1 UNK         0.0781 
    109 H109      -74.1550   24.9807  -74.8221 H         1 UNK         0.0781 
    110 H110      -76.6149   24.6451  -70.9997 H         1 UNK         0.0836 
    111 H111      -77.1982   24.8807  -72.6229 H         1 UNK         0.0836 
    112 H112      -77.5041   23.2275  -74.4914 H         1 UNK         0.3022 
    113 H113      -78.2374   19.9088  -73.5652 H         1 UNK         0.0747 
    114 H114      -79.2937   20.9060  -71.5432 H         1 UNK         0.0793 
    115 H115      -77.5547   20.8020  -71.3282 H         1 UNK         0.0793 
    116 H116      -78.2942   22.3517  -71.7035 H         1 UNK         0.0793 
    117 H117      -79.8130   22.3000  -73.6596 H         1 UNK         0.3047 
    118 H118      -80.1022   22.7255  -77.0659 H         1 UNK         0.0822 
    119 H119      -82.5233   22.1992  -77.0005 H         1 UNK         0.0807 
    120 H120      -82.3096   21.2560  -75.5242 H         1 UNK         0.0807 
    121 H121      -81.5929   20.7128  -77.0348 H         1 UNK         0.0807 
    122 H122      -81.8694   23.7038  -75.1550 H         1 UNK         0.2946 
    123 H123      -81.7679   25.7659  -74.4711 H         1 UNK         0.1144 
    124 H124      -80.9012   26.6342  -72.3240 H         1 UNK         0.0793 
    125 H125      -79.3218   25.9180  -72.6213 H         1 UNK         0.0793 
    126 H126      -80.7211   24.8881  -72.3477 H         1 UNK         0.0793 
    127 H127      -79.6055   27.6300  -74.3475 H         1 UNK         0.2896 
@<TRIPOS>BOND
     1    1    2 1    
     2    1   67 1    
     3    1   68 1    
     4    1   69 1    
     5    2    3 2    
     6    2    4 am   BACKBONE|DICT|INTERRES
     7    4    5 1    
     8    4   70 1    
     9    5    6 1    
    10    5   65 1    
    11    5   71 1    
    12    6    7 1    
    13    6   72 1    
    14    6   73 1    
    15    7    8 1    
    16    8    9 1    
    17    8   74 1    
    18    8   75 1    
    19    9   10 ar   
    20    9   14 ar   
    21   10   11 ar   
    22   10   76 1    
    23   11   12 ar   
    24   11   48 1    
    25   12   13 ar   
    26   12   77 1    
    27   13   14 ar   
    28   13   15 1    
    29   14   78 1    
    30   15   16 1    
    31   15   79 1    
    32   15   80 1    
    33   16   17 1    
    34   17   18 1    
    35   17   81 1    
    36   17   82 1    
    37   18   19 1    
    38   18   22 1    
    39   18   83 1    
    40   19   20 am   BACKBONE|DICT|INTERRES
    41   19   21 2    
    42   20   84 1    
    43   20   85 1    
    44   22   23 am   BACKBONE|DICT|INTERRES
    45   22   86 1    
    46   23   24 2    
    47   23   25 1    
    48   25   26 1    
    49   25   27 1    
    50   25   87 1    
    51   26   88 1    
    52   26   89 1    
    53   26   90 1    
    54   27   28 am   BACKBONE|DICT|INTERRES
    55   27   91 1    
    56   28   29 2    
    57   28   30 1    
    58   30   31 1    
    59   30   32 1    
    60   30   92 1    
    61   31   93 1    
    62   31   94 1    
    63   31   95 1    
    64   32   33 am   BACKBONE|DICT|INTERRES
    65   32   96 1    
    66   33   34 2    
    67   33   35 1    
    68   35   36 1    
    69   35   37 1    
    70   35   97 1    
    71   36   98 1    
    72   36   99 1    
    73   36  100 1    
    74   37   38 am   BACKBONE|DICT|INTERRES
    75   37  101 1    
    76   38   39 2    
    77   38   40 1    
    78   40   41 1    
    79   40   42 1    
    80   40  102 1    
    81   41  103 1    
    82   41  104 1    
    83   41  105 1    
    84   42   43 am   BACKBONE|DICT|INTERRES
    85   42  106 1    
    86   43   44 2    
    87   43   45 1    
    88   45   46 1    
    89   45   49 1    
    90   45  107 1    
    91   46   47 1    
    92   46  108 1    
    93   46  109 1    
    94   47   48 1    
    95   48  110 1    
    96   48  111 1    
    97   49   50 am   BACKBONE|DICT|INTERRES
    98   49  112 1    
    99   50   51 2    
   100   50   52 1    
   101   52   53 1    
   102   52   54 1    
   103   52  113 1    
   104   53  114 1    
   105   53  115 1    
   106   53  116 1    
   107   54   55 am   BACKBONE|DICT|INTERRES
   108   54  117 1    
   109   55   56 2    
   110   55   57 1    
   111   57   58 1    
   112   57   59 1    
   113   57  118 1    
   114   58  119 1    
   115   58  120 1    
   116   58  121 1    
   117   59   60 am   BACKBONE|DICT|INTERRES
   118   59  122 1    
   119   60   61 2    
   120   60   62 1    
   121   62   63 1    
   122   62   64 1    
   123   62  123 1    
   124   63  124 1    
   125   63  125 1    
   126   63  126 1    
   127   64   65 am   BACKBONE|DICT|INTERRES
   128   64  127 1    
   129   65   66 2    
@<TRIPOS>SUBSTRUCTURE
     1 UNK         1 GROUP             0       ****    0 ROOT    
