@<TRIPOS>MOLECULE
3R135
127   129    1
SMALL
USER_CHARGES


@<TRIPOS>ATOM
      1 CA        -85.6029   29.4338  -76.2229 C.3       0 UNK        -0.1998 
      2 C         -84.1072   29.1665  -76.1463 C.2       0 UNK         0.4909 
      3 O         -83.3491   29.6962  -76.9591 O.2       0 UNK        -0.5240 
      4 N         -83.6777   28.3525  -75.1722 N.am      1 UNK        -0.4739 
      5 CA        -82.2793   27.9543  -74.9679 C.3       1 UNK         0.0864 
      6 C6        -82.0904   27.3080  -73.5706 C.3       11 UNK        -0.0881 
      7 S7        -80.3428   27.1652  -73.0676 S.3       11 UNK        -0.2682 
      8 C8        -80.1970   28.5315  -71.8774 C.3       11 UNK         0.0289 
      9 C9        -78.7702   28.6782  -71.3680 C.ar      11 UNK        -0.0687 
     10 C10       -78.2135   27.6911  -70.5487 C.ar      11 UNK        -0.0823 
     11 C11       -76.9107   27.8253  -70.0592 C.ar      11 UNK        -0.0830 
     12 C12       -76.1745   28.9708  -70.3711 C.ar      11 UNK        -0.1021 
     13 C13       -76.7145   29.9611  -71.1963 C.ar      11 UNK        -0.0753 
     14 C14       -78.0116   29.8066  -71.6967 C.ar      11 UNK        -0.0933 
     15 C15       -75.9048   31.2055  -71.5316 C.3       11 UNK         0.0166 
     16 S16       -74.7824   30.9261  -72.9369 S.3       11 UNK        -0.2615 
     17 C17       -73.4508   29.9475  -72.1562 C.3       11 UNK        -0.0865 
     18 CA        -72.0811   30.1413  -72.8536 C.3       10 UNK         0.0862 
     19 C         -70.9559   29.3945  -72.0868 C.2       10 UNK         0.5551 
     20 N         -70.3785   30.0260  -71.0736 N.am      10 UNK        -0.7319 
     21 O         -70.6296   28.2437  -72.3704 O.2       10 UNK        -0.5018 
     22 N         -72.1419   29.7615  -74.2705 N.am      10 UNK        -0.4509 
     23 C         -71.2524   30.1308  -75.1987 C.2       10 UNK         0.4899 
     24 O         -70.2785   30.8518  -74.9729 O.2       10 UNK        -0.4839 
     25 CA        -71.5285   29.6194  -76.6222 C.3       9 UNK         0.0222 
     26 CB        -70.4678   30.0572  -77.6561 C.3       9 UNK        -0.1966 
     27 N         -71.7509   28.1703  -76.6469 N.am      9 UNK        -0.4218 
     28 C         -70.8590   27.1946  -76.4073 C.2       9 UNK         0.5020 
     29 O         -69.6707   27.4025  -76.1574 O.2       9 UNK        -0.5274 
     30 CA        -71.3518   25.7304  -76.4524 C.3       8 UNK         0.0270 
     31 CB        -71.1079   25.0337  -75.1023 C.3       8 UNK        -0.1976 
     32 N         -72.7639   25.5754  -76.8135 N.am      8 UNK        -0.4313 
     33 C         -73.2890   25.7842  -78.0287 C.2       8 UNK         0.5041 
     34 O         -72.6169   26.0370  -79.0288 O.2       8 UNK        -0.5577 
     35 CA        -74.8259   25.7647  -78.1384 C.3       7 UNK         0.0284 
     36 CB        -75.3151   24.3756  -78.5719 C.3       7 UNK        -0.1958 
     37 N         -75.5137   26.1775  -76.9060 N.am      7 UNK        -0.4454 
     38 C         -75.3919   27.3891  -76.3392 C.2       7 UNK         0.5089 
     39 O         -74.6777   28.2844  -76.7907 O.2       7 UNK        -0.5125 
     40 CA        -76.1566   27.6367  -75.0314 C.3       6 UNK         0.0408 
     41 CB        -77.6036   28.0480  -75.3189 C.3       6 UNK        -0.1791 
     42 N         -76.1327   26.4721  -74.1467 N.am      6 UNK        -0.4762 
     43 C         -75.0520   26.0954  -73.4482 C.2       6 UNK         0.5007 
     44 O         -73.9850   26.7090  -73.4633 O.2       6 UNK        -0.5032 
     45 CA        -75.1586   24.7704  -72.6626 C.3       5 UNK         0.0783 
     46 C46       -75.9306   24.9265  -71.3293 C.3       11 UNK        -0.0857 
     47 S47       -74.9812   25.8250  -70.0569 S.3       11 UNK        -0.2512 
     48 C48       -76.2963   26.7399  -69.1871 C.3       11 UNK         0.0225 
     49 N         -75.7360   23.6971  -73.4769 N.am      5 UNK        -0.4615 
     50 C         -75.2097   23.2207  -74.6130 C.2       4 UNK         0.5053 
     51 O         -74.1571   23.6238  -75.1046 O.2       4 UNK        -0.5105 
     52 CA        -76.0035   22.1213  -75.3385 C.3       4 UNK         0.0263 
     53 CB        -75.5528   20.7341  -74.8539 C.3       4 UNK        -0.1981 
     54 N         -77.4594   22.2341  -75.2044 N.am      4 UNK        -0.4224 
     55 C         -78.2046   23.2861  -75.5726 C.2       3 UNK         0.4895 
     56 O         -77.7478   24.3429  -76.0201 O.2       3 UNK        -0.5091 
     57 CA        -79.7129   23.1250  -75.3590 C.3       3 UNK         0.0250 
     58 CB        -80.0793   23.3333  -73.8784 C.3       3 UNK        -0.1996 
     59 N         -80.4440   24.0853  -76.1816 N.am      3 UNK        -0.4254 
     60 C         -81.6405   23.8658  -76.7399 C.2       2 UNK         0.5004 
     61 O         -82.2608   22.8061  -76.6290 O.2       2 UNK        -0.5226 
     62 CA        -82.2715   25.0475  -77.5008 C.3       2 UNK         0.0269 
     63 CB        -83.5290   24.6444  -78.2943 C.3       2 UNK        -0.1926 
     64 N         -82.6284   26.1090  -76.5580 N.am      2 UNK        -0.4687 
     65 C         -81.7716   27.0294  -76.0959 C.2       1 UNK         0.5165 
     66 O         -80.6242   27.1523  -76.5242 O.2       1 UNK        -0.5079 
     67 H67       -85.7990   30.5008  -76.1200 H         1 UNK         0.0900 
     68 H68       -86.1520   28.9115  -75.4397 H         1 UNK         0.0900 
     69 H69       -85.9932   29.1068  -77.1863 H         1 UNK         0.0900 
     70 H70       -84.3493   27.9566  -74.5293 H         1 UNK         0.2959 
     71 H71       -81.6750   28.8640  -75.0053 H         1 UNK         0.1079 
     72 H72       -82.6180   27.8931  -72.8155 H         1 UNK         0.0837 
     73 H73       -82.5406   26.3138  -73.5375 H         1 UNK         0.0837 
     74 H74       -80.8645   28.3504  -71.0337 H         1 UNK         0.0685 
     75 H75       -80.5342   29.4551  -72.3507 H         1 UNK         0.0685 
     76 H76       -78.7969   26.8145  -70.3018 H         1 UNK         0.1434 
     77 H77       -75.1735   29.0811  -69.9787 H         1 UNK         0.1329 
     78 H78       -78.4337   30.5718  -72.3336 H         1 UNK         0.1335 
     79 H79       -76.5759   32.0281  -71.7836 H         1 UNK         0.0680 
     80 H80       -75.3386   31.5369  -70.6599 H         1 UNK         0.0680 
     81 H81       -73.7419   28.8966  -72.1540 H         1 UNK         0.1032 
     82 H82       -73.3720   30.2418  -71.1083 H         1 UNK         0.1032 
     83 H83       -71.8456   31.2074  -72.8192 H         1 UNK         0.0461 
     84 H84       -69.6554   29.5552  -70.5523 H         1 UNK         0.3453 
     85 H85       -70.6392   30.9684  -70.8277 H         1 UNK         0.3453 
     86 H86       -72.8926   29.1372  -74.5278 H         1 UNK         0.2984 
     87 H87       -72.4745   30.0700  -76.9261 H         1 UNK         0.0554 
     88 H88       -70.4187   31.1446  -77.7228 H         1 UNK         0.0847 
     89 H89       -70.7052   29.6819  -78.6514 H         1 UNK         0.0847 
     90 H90       -69.4692   29.7069  -77.3940 H         1 UNK         0.0847 
     91 H91       -72.7153   27.9003  -76.8158 H         1 UNK         0.3141 
     92 H92       -70.7550   25.2188  -77.2100 H         1 UNK         0.0743 
     93 H93       -70.0550   25.0757  -74.8208 H         1 UNK         0.0784 
     94 H94       -71.6776   25.5039  -74.2998 H         1 UNK         0.0784 
     95 H95       -71.3885   23.9810  -75.1413 H         1 UNK         0.0784 
     96 H96       -73.3880   25.2781  -76.0694 H         1 UNK         0.3213 
     97 H97       -75.1070   26.4797  -78.9145 H         1 UNK         0.0855 
     98 H98       -74.9447   23.5992  -77.9052 H         1 UNK         0.0814 
     99 H99       -74.9548   24.1357  -79.5731 H         1 UNK         0.0814 
    100 H100      -76.4036   24.3179  -78.5947 H         1 UNK         0.0814 
    101 H101      -76.1541   25.5089  -76.4875 H         1 UNK         0.3105 
    102 H102      -75.6726   28.4700  -74.5179 H         1 UNK         0.0547 
    103 H103      -77.6490   28.8571  -76.0490 H         1 UNK         0.0837 
    104 H104      -78.1827   27.2142  -75.7145 H         1 UNK         0.0837 
    105 H105      -78.0937   28.4058  -74.4150 H         1 UNK         0.0837 
    106 H106      -76.9562   25.8867  -74.1364 H         1 UNK         0.3020 
    107 H107      -74.1367   24.4618  -72.4286 H         1 UNK         0.1245 
    108 H108      -76.1534   23.9436  -70.9109 H         1 UNK         0.0781 
    109 H109      -76.8976   25.4017  -71.4983 H         1 UNK         0.0781 
    110 H110      -77.0564   26.0375  -68.8412 H         1 UNK         0.0836 
    111 H111      -75.8742   27.1970  -68.2910 H         1 UNK         0.0836 
    112 H112      -76.6056   23.3011  -73.1537 H         1 UNK         0.3022 
    113 H113      -75.7737   22.1923  -76.4011 H         1 UNK         0.0747 
    114 H114      -74.4742   20.6134  -74.9659 H         1 UNK         0.0793 
    115 H115      -76.0256   19.9382  -75.4299 H         1 UNK         0.0793 
    116 H116      -75.7906   20.5753  -73.8013 H         1 UNK         0.0793 
    117 H117      -77.9325   21.4216  -74.8348 H         1 UNK         0.3047 
    118 H118      -79.9850   22.1105  -75.6592 H         1 UNK         0.0822 
    119 H119      -81.1546   23.2504  -73.7192 H         1 UNK         0.0807 
    120 H120      -79.7647   24.3141  -73.5221 H         1 UNK         0.0807 
    121 H121      -79.6020   22.5870  -73.2426 H         1 UNK         0.0807 
    122 H122      -79.9793   24.9753  -76.3284 H         1 UNK         0.2946 
    123 H123      -81.5306   25.4168  -78.2141 H         1 UNK         0.1144 
    124 H124      -83.3007   23.8544  -79.0110 H         1 UNK         0.0793 
    125 H125      -83.9269   25.4876  -78.8591 H         1 UNK         0.0793 
    126 H126      -84.3212   24.2748  -77.6419 H         1 UNK         0.0793 
    127 H127      -83.5518   26.0650  -76.1521 H         1 UNK         0.2896 
@<TRIPOS>BOND
     1    1    2 1    
     2    1   67 1    
     3    1   68 1    
     4    1   69 1    
     5    2    3 2    
     6    2    4 am   BACKBONE|DICT|INTERRES
     7    4    5 1    
     8    4   70 1    
     9    5    6 1    
    10    5   65 1    
    11    5   71 1    
    12    6    7 1    
    13    6   72 1    
    14    6   73 1    
    15    7    8 1    
    16    8    9 1    
    17    8   74 1    
    18    8   75 1    
    19    9   10 ar   
    20    9   14 ar   
    21   10   11 ar   
    22   10   76 1    
    23   11   12 ar   
    24   11   48 1    
    25   12   13 ar   
    26   12   77 1    
    27   13   14 ar   
    28   13   15 1    
    29   14   78 1    
    30   15   16 1    
    31   15   79 1    
    32   15   80 1    
    33   16   17 1    
    34   17   18 1    
    35   17   81 1    
    36   17   82 1    
    37   18   19 1    
    38   18   22 1    
    39   18   83 1    
    40   19   20 am   BACKBONE|DICT|INTERRES
    41   19   21 2    
    42   20   84 1    
    43   20   85 1    
    44   22   23 am   BACKBONE|DICT|INTERRES
    45   22   86 1    
    46   23   24 2    
    47   23   25 1    
    48   25   26 1    
    49   25   27 1    
    50   25   87 1    
    51   26   88 1    
    52   26   89 1    
    53   26   90 1    
    54   27   28 am   BACKBONE|DICT|INTERRES
    55   27   91 1    
    56   28   29 2    
    57   28   30 1    
    58   30   31 1    
    59   30   32 1    
    60   30   92 1    
    61   31   93 1    
    62   31   94 1    
    63   31   95 1    
    64   32   33 am   BACKBONE|DICT|INTERRES
    65   32   96 1    
    66   33   34 2    
    67   33   35 1    
    68   35   36 1    
    69   35   37 1    
    70   35   97 1    
    71   36   98 1    
    72   36   99 1    
    73   36  100 1    
    74   37   38 am   BACKBONE|DICT|INTERRES
    75   37  101 1    
    76   38   39 2    
    77   38   40 1    
    78   40   41 1    
    79   40   42 1    
    80   40  102 1    
    81   41  103 1    
    82   41  104 1    
    83   41  105 1    
    84   42   43 am   BACKBONE|DICT|INTERRES
    85   42  106 1    
    86   43   44 2    
    87   43   45 1    
    88   45   46 1    
    89   45   49 1    
    90   45  107 1    
    91   46   47 1    
    92   46  108 1    
    93   46  109 1    
    94   47   48 1    
    95   48  110 1    
    96   48  111 1    
    97   49   50 am   BACKBONE|DICT|INTERRES
    98   49  112 1    
    99   50   51 2    
   100   50   52 1    
   101   52   53 1    
   102   52   54 1    
   103   52  113 1    
   104   53  114 1    
   105   53  115 1    
   106   53  116 1    
   107   54   55 am   BACKBONE|DICT|INTERRES
   108   54  117 1    
   109   55   56 2    
   110   55   57 1    
   111   57   58 1    
   112   57   59 1    
   113   57  118 1    
   114   58  119 1    
   115   58  120 1    
   116   58  121 1    
   117   59   60 am   BACKBONE|DICT|INTERRES
   118   59  122 1    
   119   60   61 2    
   120   60   62 1    
   121   62   63 1    
   122   62   64 1    
   123   62  123 1    
   124   63  124 1    
   125   63  125 1    
   126   63  126 1    
   127   64   65 am   BACKBONE|DICT|INTERRES
   128   64  127 1    
   129   65   66 2    
@<TRIPOS>SUBSTRUCTURE
     1 UNK         1 GROUP             0       ****    0 ROOT    
