@<TRIPOS>MOLECULE
3R135
127   129    1
SMALL
USER_CHARGES


@<TRIPOS>ATOM
      1 CA        -83.2522   23.4548  -74.4000 C.3       0 UNK        -0.1998 
      2 C         -83.2640   24.7703  -73.6356 C.2       0 UNK         0.4909 
      3 O         -84.3299   25.2421  -73.2390 O.2       0 UNK        -0.5240 
      4 N         -82.0869   25.3663  -73.4308 N.am      1 UNK        -0.4739 
      5 CA        -81.8853   26.6574  -72.7799 C.3       1 UNK         0.0864 
      6 C6        -81.7831   26.5052  -71.2393 C.3       11 UNK        -0.0881 
      7 S7        -81.6120   28.0921  -70.3459 S.3       11 UNK        -0.2682 
      8 C8        -80.2139   27.7694  -69.2209 C.3       11 UNK         0.0289 
      9 C9        -78.8832   27.5754  -69.9408 C.ar      11 UNK        -0.0687 
     10 C10       -78.3708   26.2872  -70.1289 C.ar      11 UNK        -0.0823 
     11 C11       -77.1266   26.0891  -70.7347 C.ar      11 UNK        -0.0830 
     12 C12       -76.3772   27.2070  -71.1175 C.ar      11 UNK        -0.1021 
     13 C13       -76.8841   28.4996  -70.9643 C.ar      11 UNK        -0.0753 
     14 C14       -78.1407   28.6796  -70.3752 C.ar      11 UNK        -0.0933 
     15 C15       -76.0549   29.6872  -71.4329 C.3       11 UNK         0.0166 
     16 S16       -75.9282   29.7225  -73.2487 S.3       11 UNK        -0.2615 
     17 C17       -74.6494   30.9968  -73.4927 C.3       11 UNK        -0.0865 
     18 CA        -74.1717   31.1063  -74.9665 C.3       10 UNK         0.0862 
     19 C         -73.0281   32.1579  -75.0691 C.2       10 UNK         0.5551 
     20 N         -71.7687   31.7510  -75.1893 N.am      10 UNK        -0.7319 
     21 O         -73.2918   33.3570  -75.0320 O.2       10 UNK        -0.5018 
     22 N         -73.8312   29.7880  -75.5213 N.am      10 UNK        -0.4509 
     23 C         -73.5216   29.5180  -76.7956 C.2       10 UNK         0.4899 
     24 O         -73.6285   30.3362  -77.7095 O.2       10 UNK        -0.4839 
     25 CA        -73.0160   28.0908  -77.1059 C.3       9 UNK         0.0222 
     26 CB        -71.8576   28.1022  -78.1239 C.3       9 UNK        -0.1966 
     27 N         -72.6466   27.2972  -75.9218 N.am      9 UNK        -0.4218 
     28 C         -71.7261   27.5846  -74.9851 C.2       9 UNK         0.5020 
     29 O         -71.0305   28.6015  -74.9855 O.2       9 UNK        -0.5274 
     30 CA        -71.6154   26.5941  -73.8148 C.3       8 UNK         0.0270 
     31 CB        -72.6093   26.9822  -72.7073 C.3       8 UNK        -0.1976 
     32 N         -71.8688   25.2127  -74.2323 N.am      8 UNK        -0.4313 
     33 C         -70.9779   24.4486  -74.8797 C.2       8 UNK         0.5041 
     34 O         -69.8190   24.7906  -75.1177 O.2       8 UNK        -0.5577 
     35 CA        -71.4809   23.0810  -75.3667 C.3       7 UNK         0.0284 
     36 CB        -71.5764   22.0816  -74.2021 C.3       7 UNK        -0.1958 
     37 N         -72.7784   23.1790  -76.0387 N.am      7 UNK        -0.4454 
     38 C         -72.9990   23.7779  -77.2153 C.2       7 UNK         0.5089 
     39 O         -72.1118   24.2955  -77.8927 O.2       7 UNK        -0.5125 
     40 CA        -74.4508   23.8295  -77.7262 C.3       6 UNK         0.0408 
     41 CB        -74.8308   22.5209  -78.4441 C.3       6 UNK        -0.1791 
     42 N         -75.4602   24.2008  -76.7227 N.am      6 UNK        -0.4762 
     43 C         -75.8521   23.5312  -75.6244 C.2       6 UNK         0.5007 
     44 O         -75.3460   22.4712  -75.2534 O.2       6 UNK        -0.5032 
     45 CA        -77.0048   24.1485  -74.7987 C.3       5 UNK         0.0783 
     46 C46       -76.4622   25.1637  -73.7634 C.3       11 UNK        -0.0857 
     47 S47       -75.5049   24.4326  -72.3908 S.3       11 UNK        -0.2512 
     48 C48       -76.6289   24.6586  -70.9622 C.3       11 UNK         0.0225 
     49 N         -78.0155   24.8119  -75.6267 N.am      5 UNK        -0.4615 
     50 C         -78.6517   24.3332  -76.7034 C.2       4 UNK         0.5053 
     51 O         -78.6142   23.1570  -77.0634 O.2       4 UNK        -0.5105 
     52 CA        -79.4259   25.3627  -77.5508 C.3       4 UNK         0.0263 
     53 CB        -80.9300   25.2924  -77.2404 C.3       4 UNK        -0.1981 
     54 N         -78.9669   26.7495  -77.3805 N.am      4 UNK        -0.4224 
     55 C         -77.7307   27.2242  -77.5990 C.2       3 UNK         0.4895 
     56 O         -76.7995   26.5374  -78.0200 O.2       3 UNK        -0.5091 
     57 CA        -77.4575   28.6911  -77.2139 C.3       3 UNK         0.0250 
     58 CB        -77.9313   29.6632  -78.3108 C.3       3 UNK        -0.1996 
     59 N         -77.9674   29.0629  -75.8839 N.am      3 UNK        -0.4254 
     60 C         -79.2403   29.1470  -75.4728 C.2       2 UNK         0.5004 
     61 O         -80.2187   29.0044  -76.2109 O.2       2 UNK        -0.5226 
     62 CA        -79.4536   29.3893  -73.9707 C.3       2 UNK         0.0269 
     63 CB        -79.6633   30.8818  -73.6746 C.3       2 UNK        -0.1926 
     64 N         -80.5764   28.6191  -73.4399 N.am      2 UNK        -0.4687 
     65 C         -80.6312   27.2809  -73.4148 C.2       1 UNK         0.5165 
     66 O         -79.7453   26.5462  -73.8642 O.2       1 UNK        -0.5079 
     67 H67       -83.8488   23.5432  -75.3075 H         1 UNK         0.0900 
     68 H68       -82.2429   23.1584  -74.6860 H         1 UNK         0.0900 
     69 H69       -83.6781   22.6608  -73.7873 H         1 UNK         0.0900 
     70 H70       -81.2316   24.9724  -73.8044 H         1 UNK         0.2959 
     71 H71       -82.7328   27.3043  -73.0187 H         1 UNK         0.1079 
     72 H72       -80.9634   25.8349  -70.9833 H         1 UNK         0.0837 
     73 H73       -82.6847   26.0201  -70.8622 H         1 UNK         0.0837 
     74 H74       -80.4467   26.8994  -68.6047 H         1 UNK         0.0685 
     75 H75       -80.1258   28.6091  -68.5301 H         1 UNK         0.0685 
     76 H76       -78.9432   25.4314  -69.7981 H         1 UNK         0.1434 
     77 H77       -75.4034   27.0783  -71.5652 H         1 UNK         0.1329 
     78 H78       -78.5363   29.6769  -70.2401 H         1 UNK         0.1335 
     79 H79       -76.4864   30.6267  -71.0843 H         1 UNK         0.0680 
     80 H80       -75.0570   29.6185  -70.9972 H         1 UNK         0.0680 
     81 H81       -75.0477   31.9541  -73.1502 H         1 UNK         0.1032 
     82 H82       -73.8065   30.7638  -72.8385 H         1 UNK         0.1032 
     83 H83       -75.0047   31.4890  -75.5596 H         1 UNK         0.0461 
     84 H84       -71.5478   30.7632  -75.2035 H         1 UNK         0.3453 
     85 H85       -71.0312   32.4342  -75.2554 H         1 UNK         0.3453 
     86 H86       -73.7230   29.0507  -74.8430 H         1 UNK         0.2984 
     87 H87       -73.8561   27.5690  -77.5672 H         1 UNK         0.0554 
     88 H88       -71.5274   27.0901  -78.3586 H         1 UNK         0.0847 
     89 H89       -70.9968   28.6574  -77.7500 H         1 UNK         0.0847 
     90 H90       -72.1616   28.5669  -79.0626 H         1 UNK         0.0847 
     91 H91       -73.1560   26.4339  -75.8095 H         1 UNK         0.3141 
     92 H92       -70.6036   26.6617  -73.4089 H         1 UNK         0.0743 
     93 H93       -73.6390   26.9599  -73.0645 H         1 UNK         0.0784 
     94 H94       -72.5362   26.3099  -71.8521 H         1 UNK         0.0784 
     95 H95       -72.4138   27.9917  -72.3425 H         1 UNK         0.0784 
     96 H96       -72.7822   24.8281  -74.0382 H         1 UNK         0.3213 
     97 H97       -70.7559   22.6970  -76.0878 H         1 UNK         0.0855 
     98 H98       -72.3206   22.3843  -73.4642 H         1 UNK         0.0814 
     99 H99       -70.6200   21.9927  -73.6849 H         1 UNK         0.0814 
    100 H100      -71.8450   21.0864  -74.5571 H         1 UNK         0.0814 
    101 H101      -73.5871   22.7694  -75.5738 H         1 UNK         0.3105 
    102 H102      -74.4869   24.6266  -78.4708 H         1 UNK         0.0547 
    103 H103      -74.1381   22.3095  -79.2597 H         1 UNK         0.0837 
    104 H104      -74.8097   21.6629  -77.7717 H         1 UNK         0.0837 
    105 H105      -75.8302   22.5830  -78.8750 H         1 UNK         0.0837 
    106 H106      -75.9676   25.0513  -76.9522 H         1 UNK         0.3020 
    107 H107      -77.5068   23.3342  -74.2724 H         1 UNK         0.1245 
    108 H108      -77.2998   25.7168  -73.3395 H         1 UNK         0.0781 
    109 H109      -75.8420   25.9201  -74.2482 H         1 UNK         0.0781 
    110 H110      -76.1163   24.3216  -70.0605 H         1 UNK         0.0836 
    111 H111      -77.4805   23.9906  -71.1010 H         1 UNK         0.0836 
    112 H112      -78.2343   25.7627  -75.3595 H         1 UNK         0.3022 
    113 H113      -79.2748   25.0952  -78.5984 H         1 UNK         0.0747 
    114 H114      -81.5033   25.9288  -77.9147 H         1 UNK         0.0793 
    115 H115      -81.3089   24.2758  -77.3551 H         1 UNK         0.0793 
    116 H116      -81.1444   25.6096  -76.2197 H         1 UNK         0.0793 
    117 H117      -79.6457   27.4139  -77.0142 H         1 UNK         0.3047 
    118 H118      -76.3743   28.7929  -77.1444 H         1 UNK         0.0822 
    119 H119      -79.0082   29.6113  -78.4725 H         1 UNK         0.0807 
    120 H120      -77.4513   29.4344  -79.2632 H         1 UNK         0.0807 
    121 H121      -77.6786   30.6936  -78.0609 H         1 UNK         0.0807 
    122 H122      -77.2493   29.1998  -75.1824 H         1 UNK         0.2946 
    123 H123      -78.5747   29.0409  -73.4299 H         1 UNK         0.1144 
    124 H124      -78.8136   31.4706  -74.0231 H         1 UNK         0.0793 
    125 H125      -79.7624   31.0628  -72.6040 H         1 UNK         0.0793 
    126 H126      -80.5555   31.2691  -74.1681 H         1 UNK         0.0793 
    127 H127      -81.3438   29.1467  -73.0501 H         1 UNK         0.2896 
@<TRIPOS>BOND
     1    1    2 1    
     2    1   67 1    
     3    1   68 1    
     4    1   69 1    
     5    2    3 2    
     6    2    4 am   BACKBONE|DICT|INTERRES
     7    4    5 1    
     8    4   70 1    
     9    5    6 1    
    10    5   65 1    
    11    5   71 1    
    12    6    7 1    
    13    6   72 1    
    14    6   73 1    
    15    7    8 1    
    16    8    9 1    
    17    8   74 1    
    18    8   75 1    
    19    9   10 ar   
    20    9   14 ar   
    21   10   11 ar   
    22   10   76 1    
    23   11   12 ar   
    24   11   48 1    
    25   12   13 ar   
    26   12   77 1    
    27   13   14 ar   
    28   13   15 1    
    29   14   78 1    
    30   15   16 1    
    31   15   79 1    
    32   15   80 1    
    33   16   17 1    
    34   17   18 1    
    35   17   81 1    
    36   17   82 1    
    37   18   19 1    
    38   18   22 1    
    39   18   83 1    
    40   19   20 am   BACKBONE|DICT|INTERRES
    41   19   21 2    
    42   20   84 1    
    43   20   85 1    
    44   22   23 am   BACKBONE|DICT|INTERRES
    45   22   86 1    
    46   23   24 2    
    47   23   25 1    
    48   25   26 1    
    49   25   27 1    
    50   25   87 1    
    51   26   88 1    
    52   26   89 1    
    53   26   90 1    
    54   27   28 am   BACKBONE|DICT|INTERRES
    55   27   91 1    
    56   28   29 2    
    57   28   30 1    
    58   30   31 1    
    59   30   32 1    
    60   30   92 1    
    61   31   93 1    
    62   31   94 1    
    63   31   95 1    
    64   32   33 am   BACKBONE|DICT|INTERRES
    65   32   96 1    
    66   33   34 2    
    67   33   35 1    
    68   35   36 1    
    69   35   37 1    
    70   35   97 1    
    71   36   98 1    
    72   36   99 1    
    73   36  100 1    
    74   37   38 am   BACKBONE|DICT|INTERRES
    75   37  101 1    
    76   38   39 2    
    77   38   40 1    
    78   40   41 1    
    79   40   42 1    
    80   40  102 1    
    81   41  103 1    
    82   41  104 1    
    83   41  105 1    
    84   42   43 am   BACKBONE|DICT|INTERRES
    85   42  106 1    
    86   43   44 2    
    87   43   45 1    
    88   45   46 1    
    89   45   49 1    
    90   45  107 1    
    91   46   47 1    
    92   46  108 1    
    93   46  109 1    
    94   47   48 1    
    95   48  110 1    
    96   48  111 1    
    97   49   50 am   BACKBONE|DICT|INTERRES
    98   49  112 1    
    99   50   51 2    
   100   50   52 1    
   101   52   53 1    
   102   52   54 1    
   103   52  113 1    
   104   53  114 1    
   105   53  115 1    
   106   53  116 1    
   107   54   55 am   BACKBONE|DICT|INTERRES
   108   54  117 1    
   109   55   56 2    
   110   55   57 1    
   111   57   58 1    
   112   57   59 1    
   113   57  118 1    
   114   58  119 1    
   115   58  120 1    
   116   58  121 1    
   117   59   60 am   BACKBONE|DICT|INTERRES
   118   59  122 1    
   119   60   61 2    
   120   60   62 1    
   121   62   63 1    
   122   62   64 1    
   123   62  123 1    
   124   63  124 1    
   125   63  125 1    
   126   63  126 1    
   127   64   65 am   BACKBONE|DICT|INTERRES
   128   64  127 1    
   129   65   66 2    
@<TRIPOS>SUBSTRUCTURE
     1 UNK         1 GROUP             0       ****    0 ROOT    
