@<TRIPOS>MOLECULE
3R135
127   129    1
SMALL
USER_CHARGES


@<TRIPOS>ATOM
      1 CA        -81.3437   29.8506  -76.8292 C.3       0 UNK        -0.1998 
      2 C         -81.8304   29.1582  -75.5648 C.2       0 UNK         0.4909 
      3 O         -82.9890   28.7464  -75.5047 O.2       0 UNK        -0.5240 
      4 N         -80.9477   29.0290  -74.5642 N.am      1 UNK        -0.4739 
      5 CA        -81.1763   28.3819  -73.2632 C.3       1 UNK         0.0864 
      6 C6        -82.1412   29.1683  -72.3328 C.3       11 UNK        -0.0881 
      7 S7        -81.4525   30.7804  -71.8216 S.3       11 UNK        -0.2682 
      8 C8        -80.8406   30.4135  -70.1416 C.3       11 UNK         0.0289 
      9 C9        -79.5184   29.6582  -70.1716 C.ar      11 UNK        -0.0687 
     10 C10       -79.5000   28.2628  -70.2518 C.ar      11 UNK        -0.0823 
     11 C11       -78.2916   27.5649  -70.3401 C.ar      11 UNK        -0.0830 
     12 C12       -77.0881   28.2788  -70.2664 C.ar      11 UNK        -0.1021 
     13 C13       -77.0909   29.6730  -70.1709 C.ar      11 UNK        -0.0753 
     14 C14       -78.3092   30.3572  -70.1276 C.ar      11 UNK        -0.0933 
     15 C15       -75.7804   30.4447  -70.1136 C.3       11 UNK         0.0166 
     16 S16       -75.4659   31.3600  -71.6555 S.3       11 UNK        -0.2615 
     17 C17       -74.9538   30.0318  -72.7981 C.3       11 UNK        -0.0865 
     18 CA        -73.4420   30.1156  -73.1384 C.3       10 UNK         0.0862 
     19 C         -72.5749   29.3501  -72.1056 C.2       10 UNK         0.5551 
     20 N         -71.9535   30.0536  -71.1693 N.am      10 UNK        -0.7319 
     21 O         -72.4971   28.1235  -72.1227 O.2       10 UNK        -0.5018 
     22 N         -73.1821   29.6337  -74.4987 N.am      10 UNK        -0.4509 
     23 C         -72.1877   30.0665  -75.2825 C.2       10 UNK         0.4899 
     24 O         -71.4101   30.9708  -74.9713 O.2       10 UNK        -0.4839 
     25 CA        -72.0558   29.3664  -76.6474 C.3       9 UNK         0.0222 
     26 CB        -70.8761   29.8893  -77.4948 C.3       9 UNK        -0.1966 
     27 N         -72.0068   27.9077  -76.5148 N.am      9 UNK        -0.4218 
     28 C         -71.0836   27.1697  -75.8782 C.2       9 UNK         0.5020 
     29 O         -70.0757   27.6367  -75.3456 O.2       9 UNK        -0.5274 
     30 CA        -71.3150   25.6467  -75.8076 C.3       8 UNK         0.0270 
     31 CB        -71.6568   25.2308  -74.3671 C.3       8 UNK        -0.1976 
     32 N         -72.3661   25.1600  -76.7071 N.am      8 UNK        -0.4313 
     33 C         -72.2615   25.0762  -78.0405 C.2       8 UNK         0.5041 
     34 O         -71.2301   25.3310  -78.6634 O.2       8 UNK        -0.5577 
     35 CA        -73.5334   24.6830  -78.8137 C.3       7 UNK         0.0284 
     36 CB        -73.6968   23.1554  -78.8543 C.3       7 UNK        -0.1958 
     37 N         -74.7506   25.3019  -78.2748 N.am      7 UNK        -0.4454 
     38 C         -74.9859   26.6233  -78.2523 C.2       7 UNK         0.5089 
     39 O         -74.2130   27.4638  -78.7107 O.2       7 UNK        -0.5125 
     40 CA        -76.2701   27.0961  -77.5513 C.3       6 UNK         0.0408 
     41 CB        -77.4989   26.8968  -78.4520 C.3       6 UNK        -0.1791 
     42 N         -76.4773   26.4206  -76.2708 N.am      6 UNK        -0.4762 
     43 C         -75.6849   26.5559  -75.1986 C.2       6 UNK         0.5007 
     44 O         -74.7448   27.3489  -75.1452 O.2       6 UNK        -0.5032 
     45 CA        -75.9484   25.6182  -74.0049 C.3       5 UNK         0.0783 
     46 C46       -76.9695   26.2196  -73.0124 C.3       11 UNK        -0.0857 
     47 S47       -76.9194   25.3265  -71.4215 S.3       11 UNK        -0.2512 
     48 C48       -78.3310   26.0456  -70.5108 C.3       11 UNK         0.0225 
     49 N         -76.3378   24.2746  -74.4435 N.am      5 UNK        -0.4615 
     50 C         -75.5212   23.4092  -75.0564 C.2       4 UNK         0.5053 
     51 O         -74.3446   23.6496  -75.3186 O.2       4 UNK        -0.5105 
     52 CA        -76.1305   22.0623  -75.4771 C.3       4 UNK         0.0263 
     53 CB        -76.1613   21.0885  -74.2886 C.3       4 UNK        -0.1981 
     54 N         -77.4778   22.2047  -76.0337 N.am      4 UNK        -0.4224 
     55 C         -77.7560   22.8271  -77.1884 C.2       3 UNK         0.4895 
     56 O         -76.9022   23.3156  -77.9287 O.2       3 UNK        -0.5091 
     57 CA        -79.2455   22.9778  -77.5459 C.3       3 UNK         0.0250 
     58 CB        -79.7892   21.6838  -78.1725 C.3       3 UNK        -0.1996 
     59 N         -80.0831   23.3693  -76.4037 N.am      3 UNK        -0.4254 
     60 C         -79.9145   24.5005  -75.7062 C.2       2 UNK         0.5004 
     61 O         -79.0203   25.3176  -75.9398 O.2       2 UNK        -0.5226 
     62 CA        -80.8602   24.7551  -74.5285 C.3       2 UNK         0.0269 
     63 CB        -80.4671   23.8850  -73.3178 C.3       2 UNK        -0.1926 
     64 N         -80.7474   26.1723  -74.1981 N.am      2 UNK        -0.4687 
     65 C         -81.5511   26.8894  -73.4089 C.2       1 UNK         0.5165 
     66 O         -82.5296   26.4207  -72.8241 O.2       1 UNK        -0.5079 
     67 H67       -81.4274   29.1766  -77.6814 H         1 UNK         0.0900 
     68 H68       -80.3037   30.1664  -76.7484 H         1 UNK         0.0900 
     69 H69       -81.9508   30.7327  -77.0310 H         1 UNK         0.0900 
     70 H70       -80.0194   29.4081  -74.6898 H         1 UNK         0.2959 
     71 H71       -80.1967   28.3712  -72.7877 H         1 UNK         0.1079 
     72 H72       -82.3787   28.5962  -71.4346 H         1 UNK         0.0837 
     73 H73       -83.0968   29.3394  -72.8305 H         1 UNK         0.0837 
     74 H74       -80.7131   31.3558  -69.6066 H         1 UNK         0.0685 
     75 H75       -81.5902   29.8518  -69.5822 H         1 UNK         0.0685 
     76 H76       -80.4343   27.7191  -70.2791 H         1 UNK         0.1434 
     77 H77       -76.1439   27.7535  -70.3021 H         1 UNK         0.1329 
     78 H78       -78.3133   31.4371  -70.0674 H         1 UNK         0.1335 
     79 H79       -74.9397   29.7813  -69.9040 H         1 UNK         0.0680 
     80 H80       -75.8218   31.1551  -69.2867 H         1 UNK         0.0680 
     81 H81       -75.2261   29.0504  -72.4073 H         1 UNK         0.1032 
     82 H82       -75.5510   30.1586  -73.7026 H         1 UNK         0.1032 
     83 H83       -73.1529   31.1688  -73.1132 H         1 UNK         0.0461 
     84 H84       -72.0286   31.0584  -71.1402 H         1 UNK         0.3453 
     85 H85       -71.3966   29.5714  -70.4816 H         1 UNK         0.3453 
     86 H86       -73.7285   28.8272  -74.7966 H         1 UNK         0.2984 
     87 H87       -72.9733   29.5884  -77.1943 H         1 UNK         0.0554 
     88 H88       -70.8317   29.3887  -78.4621 H         1 UNK         0.0847 
     89 H89       -69.9177   29.7418  -76.9963 H         1 UNK         0.0847 
     90 H90       -70.9792   30.9578  -77.6873 H         1 UNK         0.0847 
     91 H91       -72.8000   27.4183  -76.9097 H         1 UNK         0.3141 
     92 H92       -70.3777   25.1627  -76.0894 H         1 UNK         0.0743 
     93 H93       -72.5811   25.6975  -74.0249 H         1 UNK         0.0784 
     94 H94       -71.7716   24.1503  -74.2798 H         1 UNK         0.0784 
     95 H95       -70.8689   25.5303  -73.6747 H         1 UNK         0.0784 
     96 H96       -73.2227   24.8301  -76.2663 H         1 UNK         0.3213 
     97 H97       -73.4140   25.0368  -79.8400 H         1 UNK         0.0855 
     98 H98       -73.8447   22.7373  -77.8585 H         1 UNK         0.0814 
     99 H99       -72.8125   22.6795  -79.2801 H         1 UNK         0.0814 
    100 H100      -74.5491   22.8642  -79.4685 H         1 UNK         0.0814 
    101 H101      -75.4661   24.6722  -77.9208 H         1 UNK         0.3105 
    102 H102      -76.1685   28.1650  -77.3520 H         1 UNK         0.0547 
    103 H103      -77.6751   25.8435  -78.6712 H         1 UNK         0.0837 
    104 H104      -78.4001   27.2935  -77.9843 H         1 UNK         0.0837 
    105 H105      -77.3726   27.4127  -79.4046 H         1 UNK         0.0837 
    106 H106      -77.2862   25.8044  -76.2064 H         1 UNK         0.3020 
    107 H107      -74.9919   25.5270  -73.4843 H         1 UNK         0.1245 
    108 H108      -76.7489   27.2703  -72.8227 H         1 UNK         0.0781 
    109 H109      -77.9804   26.1865  -73.4199 H         1 UNK         0.0781 
    110 H110      -79.2470   25.7522  -71.0261 H         1 UNK         0.0836 
    111 H111      -78.3742   25.5875  -69.5221 H         1 UNK         0.0836 
    112 H112      -77.2979   24.0113  -74.2870 H         1 UNK         0.3022 
    113 H113      -75.4893   21.6354  -76.2513 H         1 UNK         0.0747 
    114 H114      -76.5178   20.1039  -74.5917 H         1 UNK         0.0793 
    115 H115      -75.1628   20.9546  -73.8699 H         1 UNK         0.0793 
    116 H116      -76.8057   21.4471  -73.4848 H         1 UNK         0.0793 
    117 H117      -78.2430   21.8318  -75.4911 H         1 UNK         0.3047 
    118 H118      -79.3191   23.7719  -78.2923 H         1 UNK         0.0822 
    119 H119      -80.8117   21.8143  -78.5276 H         1 UNK         0.0807 
    120 H120      -79.7827   20.8543  -77.4644 H         1 UNK         0.0807 
    121 H121      -79.1868   21.3839  -79.0314 H         1 UNK         0.0807 
    122 H122      -80.8340   22.7422  -76.1520 H         1 UNK         0.2946 
    123 H123      -81.8850   24.5386  -74.8379 H         1 UNK         0.1144 
    124 H124      -81.1227   24.0640  -72.4657 H         1 UNK         0.0793 
    125 H125      -79.4437   24.0783  -72.9955 H         1 UNK         0.0793 
    126 H126      -80.5395   22.8231  -73.5554 H         1 UNK         0.0793 
    127 H127      -79.9973   26.6340  -74.6999 H         1 UNK         0.2896 
@<TRIPOS>BOND
     1    1    2 1    
     2    1   67 1    
     3    1   68 1    
     4    1   69 1    
     5    2    3 2    
     6    2    4 am   BACKBONE|DICT|INTERRES
     7    4    5 1    
     8    4   70 1    
     9    5    6 1    
    10    5   65 1    
    11    5   71 1    
    12    6    7 1    
    13    6   72 1    
    14    6   73 1    
    15    7    8 1    
    16    8    9 1    
    17    8   74 1    
    18    8   75 1    
    19    9   10 ar   
    20    9   14 ar   
    21   10   11 ar   
    22   10   76 1    
    23   11   12 ar   
    24   11   48 1    
    25   12   13 ar   
    26   12   77 1    
    27   13   14 ar   
    28   13   15 1    
    29   14   78 1    
    30   15   16 1    
    31   15   79 1    
    32   15   80 1    
    33   16   17 1    
    34   17   18 1    
    35   17   81 1    
    36   17   82 1    
    37   18   19 1    
    38   18   22 1    
    39   18   83 1    
    40   19   20 am   BACKBONE|DICT|INTERRES
    41   19   21 2    
    42   20   84 1    
    43   20   85 1    
    44   22   23 am   BACKBONE|DICT|INTERRES
    45   22   86 1    
    46   23   24 2    
    47   23   25 1    
    48   25   26 1    
    49   25   27 1    
    50   25   87 1    
    51   26   88 1    
    52   26   89 1    
    53   26   90 1    
    54   27   28 am   BACKBONE|DICT|INTERRES
    55   27   91 1    
    56   28   29 2    
    57   28   30 1    
    58   30   31 1    
    59   30   32 1    
    60   30   92 1    
    61   31   93 1    
    62   31   94 1    
    63   31   95 1    
    64   32   33 am   BACKBONE|DICT|INTERRES
    65   32   96 1    
    66   33   34 2    
    67   33   35 1    
    68   35   36 1    
    69   35   37 1    
    70   35   97 1    
    71   36   98 1    
    72   36   99 1    
    73   36  100 1    
    74   37   38 am   BACKBONE|DICT|INTERRES
    75   37  101 1    
    76   38   39 2    
    77   38   40 1    
    78   40   41 1    
    79   40   42 1    
    80   40  102 1    
    81   41  103 1    
    82   41  104 1    
    83   41  105 1    
    84   42   43 am   BACKBONE|DICT|INTERRES
    85   42  106 1    
    86   43   44 2    
    87   43   45 1    
    88   45   46 1    
    89   45   49 1    
    90   45  107 1    
    91   46   47 1    
    92   46  108 1    
    93   46  109 1    
    94   47   48 1    
    95   48  110 1    
    96   48  111 1    
    97   49   50 am   BACKBONE|DICT|INTERRES
    98   49  112 1    
    99   50   51 2    
   100   50   52 1    
   101   52   53 1    
   102   52   54 1    
   103   52  113 1    
   104   53  114 1    
   105   53  115 1    
   106   53  116 1    
   107   54   55 am   BACKBONE|DICT|INTERRES
   108   54  117 1    
   109   55   56 2    
   110   55   57 1    
   111   57   58 1    
   112   57   59 1    
   113   57  118 1    
   114   58  119 1    
   115   58  120 1    
   116   58  121 1    
   117   59   60 am   BACKBONE|DICT|INTERRES
   118   59  122 1    
   119   60   61 2    
   120   60   62 1    
   121   62   63 1    
   122   62   64 1    
   123   62  123 1    
   124   63  124 1    
   125   63  125 1    
   126   63  126 1    
   127   64   65 am   BACKBONE|DICT|INTERRES
   128   64  127 1    
   129   65   66 2    
@<TRIPOS>SUBSTRUCTURE
     1 UNK         1 GROUP             0       ****    0 ROOT    
