@<TRIPOS>MOLECULE
3R135
127   129    1
SMALL
USER_CHARGES


@<TRIPOS>ATOM
      1 CA        -85.6876   26.0411  -71.9256 C.3       0 UNK        -0.1998 
      2 C         -84.2010   25.7438  -71.7979 C.2       0 UNK         0.4909 
      3 O         -83.8260   24.8206  -71.0753 O.2       0 UNK        -0.5240 
      4 N         -83.3608   26.5132  -72.5066 N.am      1 UNK        -0.4739 
      5 CA        -81.8872   26.4467  -72.5119 C.3       1 UNK         0.0864 
      6 C6        -81.2455   26.7100  -71.1184 C.3       11 UNK        -0.0881 
      7 S7        -81.6831   28.3584  -70.4651 S.3       11 UNK        -0.2682 
      8 C8        -80.0596   29.0134  -69.9420 C.3       11 UNK         0.0289 
      9 C9        -79.0333   29.1493  -71.0662 C.ar      11 UNK        -0.0687 
     10 C10       -79.3994   29.6017  -72.3399 C.ar      11 UNK        -0.0823 
     11 C11       -78.4494   29.7357  -73.3579 C.ar      11 UNK        -0.0830 
     12 C12       -77.1128   29.4224  -73.0790 C.ar      11 UNK        -0.1021 
     13 C13       -76.7284   28.9774  -71.8131 C.ar      11 UNK        -0.0753 
     14 C14       -77.6928   28.8418  -70.8113 C.ar      11 UNK        -0.0933 
     15 C15       -75.2728   28.6315  -71.5399 C.3       11 UNK         0.0166 
     16 S16       -74.3137   30.1185  -71.1234 S.3       11 UNK        -0.2615 
     17 C17       -72.6582   29.4068  -70.8273 C.3       11 UNK        -0.0865 
     18 CA        -71.6285   29.7920  -71.9234 C.3       10 UNK         0.0862 
     19 C         -70.1877   29.3645  -71.5082 C.2       10 UNK         0.5551 
     20 N         -69.4934   28.5084  -72.2498 N.am      10 UNK        -0.7319 
     21 O         -69.6861   29.8277  -70.4868 O.2       10 UNK        -0.5018 
     22 N         -72.0463   29.3167  -73.2515 N.am      10 UNK        -0.4509 
     23 C         -71.5915   29.7901  -74.4188 C.2       10 UNK         0.4899 
     24 O         -70.8428   30.7633  -74.5183 O.2       10 UNK        -0.4839 
     25 CA        -72.0466   29.0310  -75.6825 C.3       9 UNK         0.0222 
     26 CB        -71.1214   29.2688  -76.8939 C.3       9 UNK        -0.1966 
     27 N         -72.2437   27.5921  -75.4554 N.am      9 UNK        -0.4218 
     28 C         -71.3341   26.7045  -75.0232 C.2       9 UNK         0.5020 
     29 O         -70.1667   26.9923  -74.7564 O.2       9 UNK        -0.5274 
     30 CA        -71.8095   25.2610  -74.8115 C.3       8 UNK         0.0270 
     31 CB        -72.4185   25.1035  -73.4067 C.3       8 UNK        -0.1976 
     32 N         -72.7941   24.8498  -75.8180 N.am      8 UNK        -0.4313 
     33 C         -72.6241   23.8389  -76.6798 C.2       8 UNK         0.5041 
     34 O         -71.6034   23.1511  -76.7390 O.2       8 UNK        -0.5577 
     35 CA        -73.7890   23.5123  -77.6297 C.3       7 UNK         0.0284 
     36 CB        -74.7826   22.5492  -76.9600 C.3       7 UNK        -0.1958 
     37 N         -74.5085   24.6857  -78.1302 N.am      7 UNK        -0.4454 
     38 C         -74.0215   25.5330  -79.0486 C.2       7 UNK         0.5089 
     39 O         -72.8742   25.4807  -79.4920 O.2       7 UNK        -0.5125 
     40 CA        -74.9842   26.6046  -79.5817 C.3       6 UNK         0.0408 
     41 CB        -75.9693   25.9918  -80.5914 C.3       6 UNK        -0.1791 
     42 N         -75.7302   27.2288  -78.4902 N.am      6 UNK        -0.4762 
     43 C         -75.3931   28.3903  -77.9123 C.2       6 UNK         0.5007 
     44 O         -74.4702   29.1032  -78.3063 O.2       6 UNK        -0.5032 
     45 CA        -76.2008   28.8387  -76.6731 C.3       5 UNK         0.0783 
     46 C46       -77.2738   29.8892  -77.0615 C.3       11 UNK        -0.0857 
     47 S47       -77.6328   31.0681  -75.7160 S.3       11 UNK        -0.2512 
     48 C48       -78.9110   30.2008  -74.7409 C.3       11 UNK         0.0225 
     49 N         -76.7856   27.7094  -75.9357 N.am      5 UNK        -0.4615 
     50 C         -76.0824   26.7477  -75.3226 C.2       4 UNK         0.5053 
     51 O         -74.8547   26.7447  -75.2604 O.2       4 UNK        -0.5105 
     52 CA        -76.8557   25.5530  -74.7382 C.3       4 UNK         0.0263 
     53 CB        -77.0904   25.7474  -73.2344 C.3       4 UNK        -0.1981 
     54 N         -78.1256   25.2559  -75.4156 N.am      4 UNK        -0.4224 
     55 C         -78.2433   24.9659  -76.7228 C.2       3 UNK         0.4895 
     56 O         -77.2769   24.9329  -77.4880 O.2       3 UNK        -0.5091 
     57 CA        -79.6577   24.7401  -77.2955 C.3       3 UNK         0.0250 
     58 CB        -79.6558   23.7742  -78.5003 C.3       3 UNK        -0.1996 
     59 N         -80.6636   24.3506  -76.2988 N.am      3 UNK        -0.4254 
     60 C         -80.7051   23.2203  -75.5766 C.2       2 UNK         0.5004 
     61 O         -79.8868   22.3049  -75.6795 O.2       2 UNK        -0.5226 
     62 CA        -81.8550   23.1208  -74.5505 C.3       2 UNK         0.0269 
     63 CB        -81.6154   22.0184  -73.4965 C.3       2 UNK        -0.1926 
     64 N         -82.1682   24.3976  -73.8851 N.am      2 UNK        -0.4687 
     65 C         -81.3235   25.1698  -73.1803 C.2       1 UNK         0.5165 
     66 O         -80.1208   24.9290  -73.0879 O.2       1 UNK        -0.5079 
     67 H67       -85.8820   26.8706  -72.6053 H         1 UNK         0.0900 
     68 H68       -86.2154   25.1644  -72.3002 H         1 UNK         0.0900 
     69 H69       -86.1023   26.2979  -70.9511 H         1 UNK         0.0900 
     70 H70       -83.7503   27.2486  -73.0808 H         1 UNK         0.2959 
     71 H71       -81.5615   27.2562  -73.1671 H         1 UNK         0.1079 
     72 H72       -81.5518   25.9532  -70.3952 H         1 UNK         0.0837 
     73 H73       -80.1581   26.6368  -71.1765 H         1 UNK         0.0837 
     74 H74       -80.2105   29.9958  -69.4931 H         1 UNK         0.0685 
     75 H75       -79.6737   28.3692  -69.1501 H         1 UNK         0.0685 
     76 H76       -80.4326   29.8497  -72.5405 H         1 UNK         0.1434 
     77 H77       -76.3557   29.5217  -73.8412 H         1 UNK         0.1329 
     78 H78       -77.3957   28.5002  -69.8291 H         1 UNK         0.1335 
     79 H79       -74.8357   28.1513  -72.4169 H         1 UNK         0.0680 
     80 H80       -75.2030   27.9113  -70.7230 H         1 UNK         0.0680 
     81 H81       -72.3277   29.7709  -69.8525 H         1 UNK         0.1032 
     82 H82       -72.7261   28.3217  -70.7297 H         1 UNK         0.1032 
     83 H83       -71.6031   30.8826  -71.9692 H         1 UNK         0.0461 
     84 H84       -69.8696   28.1226  -73.1086 H         1 UNK         0.3453 
     85 H85       -68.5634   28.2539  -71.9579 H         1 UNK         0.3453 
     86 H86       -72.6547   28.5135  -73.2659 H         1 UNK         0.2984 
     87 H87       -73.0265   29.4362  -75.9343 H         1 UNK         0.0554 
     88 H88       -71.0739   30.3280  -77.1494 H         1 UNK         0.0847 
     89 H89       -71.4852   28.7421  -77.7764 H         1 UNK         0.0847 
     90 H90       -70.1022   28.9344  -76.6977 H         1 UNK         0.0847 
     91 H91       -73.2067   27.2701  -75.5417 H         1 UNK         0.3141 
     92 H92       -70.9223   24.6263  -74.8629 H         1 UNK         0.0743 
     93 H93       -71.7065   25.4028  -72.6361 H         1 UNK         0.0784 
     94 H94       -73.3147   25.7113  -73.2776 H         1 UNK         0.0784 
     95 H95       -72.6896   24.0661  -73.2103 H         1 UNK         0.0784 
     96 H96       -73.6623   25.3758  -75.8400 H         1 UNK         0.3213 
     97 H97       -73.3634   22.9960  -78.4934 H         1 UNK         0.0855 
     98 H98       -75.2500   22.9922  -76.0817 H         1 UNK         0.0814 
     99 H99       -74.2811   21.6365  -76.6352 H         1 UNK         0.0814 
    100 H100      -75.5762   22.2554  -77.6475 H         1 UNK         0.0814 
    101 H101      -75.4838   24.7785  -77.8531 H         1 UNK         0.3105 
    102 H102      -74.3923   27.3535  -80.1122 H         1 UNK         0.0547 
    103 H103      -76.6240   26.7531  -81.0155 H         1 UNK         0.0837 
    104 H104      -75.4363   25.5252  -81.4208 H         1 UNK         0.0837 
    105 H105      -76.5989   25.2258  -80.1372 H         1 UNK         0.0837 
    106 H106      -76.4758   26.6743  -78.0832 H         1 UNK         0.3020 
    107 H107      -75.4714   29.3166  -76.0162 H         1 UNK         0.1245 
    108 H108      -78.1928   29.4141  -77.4089 H         1 UNK         0.0781 
    109 H109      -76.9330   30.5033  -77.8981 H         1 UNK         0.0781 
    110 H110      -79.2936   29.3422  -75.2928 H         1 UNK         0.0836 
    111 H111      -79.7523   30.8865  -74.6290 H         1 UNK         0.0836 
    112 H112      -77.7910   27.6360  -75.9400 H         1 UNK         0.3022 
    113 H113      -76.2156   24.6786  -74.8577 H         1 UNK         0.0747 
    114 H114      -77.4675   24.8345  -72.7738 H         1 UNK         0.0793 
    115 H115      -76.1637   26.0027  -72.7194 H         1 UNK         0.0793 
    116 H116      -77.8097   26.5428  -73.0367 H         1 UNK         0.0793 
    117 H117      -78.9483   25.2134  -74.8239 H         1 UNK         0.3047 
    118 H118      -79.9756   25.7149  -77.6681 H         1 UNK         0.0822 
    119 H119      -79.0367   24.1598  -79.3113 H         1 UNK         0.0807 
    120 H120      -80.6598   23.6357  -78.9010 H         1 UNK         0.0807 
    121 H121      -79.2615   22.7933  -78.2335 H         1 UNK         0.0807 
    122 H122      -81.3878   25.0336  -76.1232 H         1 UNK         0.2946 
    123 H123      -82.7411   22.8408  -75.1228 H         1 UNK         0.1144 
    124 H124      -82.4487   21.9513  -72.7968 H         1 UNK         0.0793 
    125 H125      -80.7081   22.2023  -72.9198 H         1 UNK         0.0793 
    126 H126      -81.5097   21.0402  -73.9672 H         1 UNK         0.0793 
    127 H127      -83.1349   24.6904  -73.9230 H         1 UNK         0.2896 
@<TRIPOS>BOND
     1    1    2 1    
     2    1   67 1    
     3    1   68 1    
     4    1   69 1    
     5    2    3 2    
     6    2    4 am   BACKBONE|DICT|INTERRES
     7    4    5 1    
     8    4   70 1    
     9    5    6 1    
    10    5   65 1    
    11    5   71 1    
    12    6    7 1    
    13    6   72 1    
    14    6   73 1    
    15    7    8 1    
    16    8    9 1    
    17    8   74 1    
    18    8   75 1    
    19    9   10 ar   
    20    9   14 ar   
    21   10   11 ar   
    22   10   76 1    
    23   11   12 ar   
    24   11   48 1    
    25   12   13 ar   
    26   12   77 1    
    27   13   14 ar   
    28   13   15 1    
    29   14   78 1    
    30   15   16 1    
    31   15   79 1    
    32   15   80 1    
    33   16   17 1    
    34   17   18 1    
    35   17   81 1    
    36   17   82 1    
    37   18   19 1    
    38   18   22 1    
    39   18   83 1    
    40   19   20 am   BACKBONE|DICT|INTERRES
    41   19   21 2    
    42   20   84 1    
    43   20   85 1    
    44   22   23 am   BACKBONE|DICT|INTERRES
    45   22   86 1    
    46   23   24 2    
    47   23   25 1    
    48   25   26 1    
    49   25   27 1    
    50   25   87 1    
    51   26   88 1    
    52   26   89 1    
    53   26   90 1    
    54   27   28 am   BACKBONE|DICT|INTERRES
    55   27   91 1    
    56   28   29 2    
    57   28   30 1    
    58   30   31 1    
    59   30   32 1    
    60   30   92 1    
    61   31   93 1    
    62   31   94 1    
    63   31   95 1    
    64   32   33 am   BACKBONE|DICT|INTERRES
    65   32   96 1    
    66   33   34 2    
    67   33   35 1    
    68   35   36 1    
    69   35   37 1    
    70   35   97 1    
    71   36   98 1    
    72   36   99 1    
    73   36  100 1    
    74   37   38 am   BACKBONE|DICT|INTERRES
    75   37  101 1    
    76   38   39 2    
    77   38   40 1    
    78   40   41 1    
    79   40   42 1    
    80   40  102 1    
    81   41  103 1    
    82   41  104 1    
    83   41  105 1    
    84   42   43 am   BACKBONE|DICT|INTERRES
    85   42  106 1    
    86   43   44 2    
    87   43   45 1    
    88   45   46 1    
    89   45   49 1    
    90   45  107 1    
    91   46   47 1    
    92   46  108 1    
    93   46  109 1    
    94   47   48 1    
    95   48  110 1    
    96   48  111 1    
    97   49   50 am   BACKBONE|DICT|INTERRES
    98   49  112 1    
    99   50   51 2    
   100   50   52 1    
   101   52   53 1    
   102   52   54 1    
   103   52  113 1    
   104   53  114 1    
   105   53  115 1    
   106   53  116 1    
   107   54   55 am   BACKBONE|DICT|INTERRES
   108   54  117 1    
   109   55   56 2    
   110   55   57 1    
   111   57   58 1    
   112   57   59 1    
   113   57  118 1    
   114   58  119 1    
   115   58  120 1    
   116   58  121 1    
   117   59   60 am   BACKBONE|DICT|INTERRES
   118   59  122 1    
   119   60   61 2    
   120   60   62 1    
   121   62   63 1    
   122   62   64 1    
   123   62  123 1    
   124   63  124 1    
   125   63  125 1    
   126   63  126 1    
   127   64   65 am   BACKBONE|DICT|INTERRES
   128   64  127 1    
   129   65   66 2    
@<TRIPOS>SUBSTRUCTURE
     1 UNK         1 GROUP             0       ****    0 ROOT    
