@<TRIPOS>MOLECULE
3R135
127   129    1
SMALL
USER_CHARGES


@<TRIPOS>ATOM
      1 CA        -84.4196   30.3461  -75.4169 C.3       0 UNK        -0.1998 
      2 C         -82.9862   29.8359  -75.4256 C.2       0 UNK         0.4909 
      3 O         -82.2383   30.1256  -76.3601 O.2       0 UNK        -0.5240 
      4 N         -82.5988   29.0755  -74.3924 N.am      1 UNK        -0.4739 
      5 CA        -81.2511   28.5061  -74.2263 C.3       1 UNK         0.0864 
      6 C6        -80.9516   28.1475  -72.7475 C.3       11 UNK        -0.0881 
      7 S7        -81.1326   29.6002  -71.6537 S.3       11 UNK        -0.2682 
      8 C8        -80.5446   28.9590  -70.0539 C.3       11 UNK         0.0289 
      9 C9        -79.0422   28.7166  -70.0488 C.ar      11 UNK        -0.0687 
     10 C10       -78.5394   27.4150  -69.9637 C.ar      11 UNK        -0.0823 
     11 C11       -77.1602   27.1863  -69.9797 C.ar      11 UNK        -0.0830 
     12 C12       -76.2825   28.2704  -70.0517 C.ar      11 UNK        -0.1021 
     13 C13       -76.7724   29.5741  -70.1532 C.ar      11 UNK        -0.0753 
     14 C14       -78.1532   29.7933  -70.1376 C.ar      11 UNK        -0.0933 
     15 C15       -75.8074   30.7409  -70.2984 C.3       11 UNK         0.0166 
     16 S16       -75.6661   31.2970  -72.0291 S.3       11 UNK        -0.2615 
     17 C17       -74.8179   29.9004  -72.8524 C.3       11 UNK        -0.0865 
     18 CA        -73.3609   30.2373  -73.2817 C.3       10 UNK         0.0862 
     19 C         -72.3091   29.8705  -72.1895 C.2       10 UNK         0.5551 
     20 N         -71.2687   29.0992  -72.4859 N.am      10 UNK        -0.7319 
     21 O         -72.4279   30.3043  -71.0471 O.2       10 UNK        -0.5018 
     22 N         -73.0633   29.6809  -74.6108 N.am      10 UNK        -0.4509 
     23 C         -72.1881   30.2079  -75.4764 C.2       10 UNK         0.4899 
     24 O         -71.5885   31.2670  -75.2822 O.2       10 UNK        -0.4839 
     25 CA        -71.9395   29.4105  -76.7716 C.3       9 UNK         0.0222 
     26 CB        -70.7035   29.9040  -77.5531 C.3       9 UNK        -0.1966 
     27 N         -71.8640   27.9598  -76.5599 N.am      9 UNK        -0.4218 
     28 C         -71.0176   27.2905  -75.7596 C.2       9 UNK         0.5020 
     29 O         -70.1902   27.8449  -75.0345 O.2       9 UNK        -0.5274 
     30 CA        -71.1082   25.7492  -75.7273 C.3       8 UNK         0.0270 
     31 CB        -71.4078   25.2554  -74.3013 C.3       8 UNK        -0.1976 
     32 N         -72.1109   25.1912  -76.6378 N.am      8 UNK        -0.4313 
     33 C         -71.9988   25.1045  -77.9699 C.2       8 UNK         0.5041 
     34 O         -70.9772   25.3917  -78.5938 O.2       8 UNK        -0.5577 
     35 CA        -73.2695   24.6947  -78.7361 C.3       7 UNK         0.0284 
     36 CB        -73.3768   23.1658  -78.8557 C.3       7 UNK        -0.1958 
     37 N         -74.4861   25.2375  -78.1185 N.am      7 UNK        -0.4454 
     38 C         -74.7942   26.5427  -78.0761 C.2       7 UNK         0.5089 
     39 O         -74.1154   27.4208  -78.6068 O.2       7 UNK        -0.5125 
     40 CA        -76.0311   26.9436  -77.2588 C.3       6 UNK         0.0408 
     41 CB        -77.3087   26.7980  -78.0997 C.3       6 UNK        -0.1791 
     42 N         -76.1520   26.1631  -76.0262 N.am      6 UNK        -0.4762 
     43 C         -75.3716   26.3279  -74.9454 C.2       6 UNK         0.5007 
     44 O         -74.4909   27.1851  -74.8653 O.2       6 UNK        -0.5032 
     45 CA        -75.5986   25.3623  -73.7605 C.3       5 UNK         0.0783 
     46 C46       -76.7045   25.9330  -72.8420 C.3       11 UNK        -0.0857 
     47 S47       -77.1440   24.8272  -71.4499 S.3       11 UNK        -0.2512 
     48 C48       -76.6105   25.7674  -69.9813 C.3       11 UNK         0.0225 
     49 N         -75.9245   24.0017  -74.1898 N.am      5 UNK        -0.4615 
     50 C         -75.2382   23.2282  -75.0386 C.2       4 UNK         0.5053 
     51 O         -74.1329   23.5248  -75.4880 O.2       4 UNK        -0.5105 
     52 CA        -75.9399   21.9411  -75.5217 C.3       4 UNK         0.0263 
     53 CB        -75.3631   20.7148  -74.7983 C.3       4 UNK        -0.1981 
     54 N         -77.4037   21.9606  -75.3593 N.am      4 UNK        -0.4224 
     55 C         -78.2241   22.8802  -75.8907 C.2       3 UNK         0.4895 
     56 O         -77.8376   23.7701  -76.6558 O.2       3 UNK        -0.5091 
     57 CA        -79.6885   22.8596  -75.4259 C.3       3 UNK         0.0250 
     58 CB        -79.7943   22.9098  -73.8847 C.3       3 UNK        -0.1996 
     59 N         -80.3459   24.0246  -76.0085 N.am      3 UNK        -0.4254 
     60 C         -81.6520   24.2942  -76.0417 C.2       2 UNK         0.5004 
     61 O         -82.5230   23.5615  -75.5685 O.2       2 UNK        -0.5226 
     62 CA        -82.0412   25.6285  -76.7006 C.3       2 UNK         0.0269 
     63 CB        -83.4142   25.5513  -77.3932 C.3       2 UNK        -0.1926 
     64 N         -82.0643   26.7226  -75.7286 N.am      2 UNK        -0.4687 
     65 C         -80.9936   27.3025  -75.1628 C.2       1 UNK         0.5165 
     66 O         -79.8350   26.9429  -75.3744 O.2       1 UNK        -0.5079 
     67 H67       -84.4296   31.4351  -75.4253 H         1 UNK         0.0900 
     68 H68       -84.9674   30.0090  -74.5374 H         1 UNK         0.0900 
     69 H69       -84.9492   29.9936  -76.3012 H         1 UNK         0.0900 
     70 H70       -83.2455   28.8914  -73.6380 H         1 UNK         0.2959 
     71 H71       -80.5314   29.2721  -74.5259 H         1 UNK         0.1079 
     72 H72       -81.6151   27.3547  -72.3964 H         1 UNK         0.0837 
     73 H73       -79.9323   27.7668  -72.6492 H         1 UNK         0.0837 
     74 H74       -81.0920   28.0475  -69.8080 H         1 UNK         0.0685 
     75 H75       -80.7889   29.6824  -69.2749 H         1 UNK         0.0685 
     76 H76       -79.2187   26.5748  -69.9151 H         1 UNK         0.1434 
     77 H77       -75.2148   28.0981  -70.0667 H         1 UNK         0.1329 
     78 H78       -78.5378   30.8009  -70.2193 H         1 UNK         0.1335 
     79 H79       -74.8214   30.4779  -69.9140 H         1 UNK         0.0680 
     80 H80       -76.1563   31.5762  -69.6896 H         1 UNK         0.0680 
     81 H81       -75.4240   29.6643  -73.7287 H         1 UNK         0.1032 
     82 H82       -74.8502   28.9986  -72.2427 H         1 UNK         0.1032 
     83 H83       -73.2949   31.3223  -73.3822 H         1 UNK         0.0461 
     84 H84       -70.6009   28.8838  -71.7633 H         1 UNK         0.3453 
     85 H85       -71.1116   28.7628  -73.4287 H         1 UNK         0.3453 
     86 H86       -73.4959   28.7847  -74.8244 H         1 UNK         0.2984 
     87 H87       -72.8144   29.5797  -77.4005 H         1 UNK         0.0554 
     88 H88       -70.5693   29.3424  -78.4776 H         1 UNK         0.0847 
     89 H89       -69.7894   29.8073  -76.9661 H         1 UNK         0.0847 
     90 H90       -70.8055   30.9550  -77.8263 H         1 UNK         0.0847 
     91 H91       -72.5293   27.4196  -77.0988 H         1 UNK         0.3141 
     92 H92       -70.1301   25.3644  -76.0227 H         1 UNK         0.0743 
     93 H93       -72.3515   25.6536  -73.9292 H         1 UNK         0.0784 
     94 H94       -71.4626   24.1673  -74.2594 H         1 UNK         0.0784 
     95 H95       -70.6275   25.5668  -73.6056 H         1 UNK         0.0784 
     96 H96       -72.9614   24.8313  -76.2100 H         1 UNK         0.3213 
     97 H97       -73.1939   25.1083  -79.7443 H         1 UNK         0.0855 
     98 H98       -73.4355   22.6809  -77.8813 H         1 UNK         0.0814 
     99 H99       -72.5045   22.7566  -79.3672 H         1 UNK         0.0814 
    100 H100      -74.2552   22.8726  -79.4307 H         1 UNK         0.0814 
    101 H101      -75.0828   24.5881  -77.6260 H         1 UNK         0.3105 
    102 H102      -75.9266   27.9962  -76.9866 H         1 UNK         0.0547 
    103 H103      -77.2534   27.4121  -78.9995 H         1 UNK         0.0837 
    104 H104      -77.4719   25.7683  -78.4190 H         1 UNK         0.0837 
    105 H105      -78.1883   27.1200  -77.5428 H         1 UNK         0.0837 
    106 H106      -76.8356   25.4122  -76.0325 H         1 UNK         0.3020 
    107 H107      -74.6660   25.3101  -73.1956 H         1 UNK         0.1245 
    108 H108      -77.6218   26.1078  -73.4093 H         1 UNK         0.0781 
    109 H109      -76.3997   26.9111  -72.4712 H         1 UNK         0.0781 
    110 H110      -75.5199   25.7696  -69.9436 H         1 UNK         0.0836 
    111 H111      -76.9484   25.2487  -69.0831 H         1 UNK         0.0836 
    112 H112      -76.8040   23.6484  -73.8450 H         1 UNK         0.3022 
    113 H113      -75.7288   21.8428  -76.5885 H         1 UNK         0.0747 
    114 H114      -75.7785   19.7878  -75.1940 H         1 UNK         0.0793 
    115 H115      -74.2805   20.6614  -74.9243 H         1 UNK         0.0793 
    116 H116      -75.5651   20.7454  -73.7268 H         1 UNK         0.0793 
    117 H117      -77.7954   21.2584  -74.7477 H         1 UNK         0.3047 
    118 H118      -80.1606   21.9524  -75.8076 H         1 UNK         0.0822 
    119 H119      -79.3141   22.0513  -73.4149 H         1 UNK         0.0807 
    120 H120      -80.8328   22.9015  -73.5544 H         1 UNK         0.0807 
    121 H121      -79.3300   23.8105  -73.4810 H         1 UNK         0.0807 
    122 H122      -79.6935   24.6862  -76.4154 H         1 UNK         0.2946 
    123 H123      -81.2965   25.8618  -77.4656 H         1 UNK         0.1144 
    124 H124      -83.4374   24.7403  -78.1222 H         1 UNK         0.0793 
    125 H125      -83.6400   26.4736  -77.9288 H         1 UNK         0.0793 
    126 H126      -84.2202   25.3718  -76.6804 H         1 UNK         0.0793 
    127 H127      -82.9738   27.0805  -75.4764 H         1 UNK         0.2896 
@<TRIPOS>BOND
     1    1    2 1    
     2    1   67 1    
     3    1   68 1    
     4    1   69 1    
     5    2    3 2    
     6    2    4 am   BACKBONE|DICT|INTERRES
     7    4    5 1    
     8    4   70 1    
     9    5    6 1    
    10    5   65 1    
    11    5   71 1    
    12    6    7 1    
    13    6   72 1    
    14    6   73 1    
    15    7    8 1    
    16    8    9 1    
    17    8   74 1    
    18    8   75 1    
    19    9   10 ar   
    20    9   14 ar   
    21   10   11 ar   
    22   10   76 1    
    23   11   12 ar   
    24   11   48 1    
    25   12   13 ar   
    26   12   77 1    
    27   13   14 ar   
    28   13   15 1    
    29   14   78 1    
    30   15   16 1    
    31   15   79 1    
    32   15   80 1    
    33   16   17 1    
    34   17   18 1    
    35   17   81 1    
    36   17   82 1    
    37   18   19 1    
    38   18   22 1    
    39   18   83 1    
    40   19   20 am   BACKBONE|DICT|INTERRES
    41   19   21 2    
    42   20   84 1    
    43   20   85 1    
    44   22   23 am   BACKBONE|DICT|INTERRES
    45   22   86 1    
    46   23   24 2    
    47   23   25 1    
    48   25   26 1    
    49   25   27 1    
    50   25   87 1    
    51   26   88 1    
    52   26   89 1    
    53   26   90 1    
    54   27   28 am   BACKBONE|DICT|INTERRES
    55   27   91 1    
    56   28   29 2    
    57   28   30 1    
    58   30   31 1    
    59   30   32 1    
    60   30   92 1    
    61   31   93 1    
    62   31   94 1    
    63   31   95 1    
    64   32   33 am   BACKBONE|DICT|INTERRES
    65   32   96 1    
    66   33   34 2    
    67   33   35 1    
    68   35   36 1    
    69   35   37 1    
    70   35   97 1    
    71   36   98 1    
    72   36   99 1    
    73   36  100 1    
    74   37   38 am   BACKBONE|DICT|INTERRES
    75   37  101 1    
    76   38   39 2    
    77   38   40 1    
    78   40   41 1    
    79   40   42 1    
    80   40  102 1    
    81   41  103 1    
    82   41  104 1    
    83   41  105 1    
    84   42   43 am   BACKBONE|DICT|INTERRES
    85   42  106 1    
    86   43   44 2    
    87   43   45 1    
    88   45   46 1    
    89   45   49 1    
    90   45  107 1    
    91   46   47 1    
    92   46  108 1    
    93   46  109 1    
    94   47   48 1    
    95   48  110 1    
    96   48  111 1    
    97   49   50 am   BACKBONE|DICT|INTERRES
    98   49  112 1    
    99   50   51 2    
   100   50   52 1    
   101   52   53 1    
   102   52   54 1    
   103   52  113 1    
   104   53  114 1    
   105   53  115 1    
   106   53  116 1    
   107   54   55 am   BACKBONE|DICT|INTERRES
   108   54  117 1    
   109   55   56 2    
   110   55   57 1    
   111   57   58 1    
   112   57   59 1    
   113   57  118 1    
   114   58  119 1    
   115   58  120 1    
   116   58  121 1    
   117   59   60 am   BACKBONE|DICT|INTERRES
   118   59  122 1    
   119   60   61 2    
   120   60   62 1    
   121   62   63 1    
   122   62   64 1    
   123   62  123 1    
   124   63  124 1    
   125   63  125 1    
   126   63  126 1    
   127   64   65 am   BACKBONE|DICT|INTERRES
   128   64  127 1    
   129   65   66 2    
@<TRIPOS>SUBSTRUCTURE
     1 UNK         1 GROUP             0       ****    0 ROOT    
