@<TRIPOS>MOLECULE
3R135
127   129    1
SMALL
USER_CHARGES


@<TRIPOS>ATOM
      1 CA        -85.8371   29.3017  -77.0188 C.3       0 UNK        -0.1998 
      2 C         -84.7745   28.8618  -76.0228 C.2       0 UNK         0.4909 
      3 O         -85.0860   28.6687  -74.8476 O.2       0 UNK        -0.5240 
      4 N         -83.5263   28.7066  -76.4889 N.am      1 UNK        -0.4739 
      5 CA        -82.3560   28.2651  -75.7158 C.3       1 UNK         0.0864 
      6 C6        -81.9473   29.2828  -74.6120 C.3       11 UNK        -0.0881 
      7 S7        -80.1398   29.3453  -74.3939 S.3       11 UNK        -0.2682 
      8 C8        -79.9469   28.8192  -72.6579 C.3       11 UNK         0.0289 
      9 C9        -78.4984   28.5037  -72.2909 C.ar      11 UNK        -0.0687 
     10 C10       -78.2080   27.3771  -71.5146 C.ar      11 UNK        -0.0823 
     11 C11       -76.8873   27.0623  -71.1790 C.ar      11 UNK        -0.0830 
     12 C12       -75.8482   27.8775  -71.6335 C.ar      11 UNK        -0.1021 
     13 C13       -76.1221   29.0098  -72.4047 C.ar      11 UNK        -0.0753 
     14 C14       -77.4480   29.3280  -72.7114 C.ar      11 UNK        -0.0933 
     15 C15       -74.9903   29.8571  -72.9642 C.3       11 UNK         0.0166 
     16 S16       -74.1877   30.8775  -71.6881 S.3       11 UNK        -0.2615 
     17 C17       -72.6898   29.8996  -71.3149 C.3       11 UNK        -0.0865 
     18 CA        -71.4656   30.3683  -72.1437 C.3       10 UNK         0.0862 
     19 C         -70.1718   29.6565  -71.6726 C.2       10 UNK         0.5551 
     20 N         -69.3089   30.3492  -70.9426 N.am      10 UNK        -0.7319 
     21 O         -69.9704   28.4706  -71.9255 O.2       10 UNK        -0.5018 
     22 N         -71.6839   30.1490  -73.5777 N.am      10 UNK        -0.4509 
     23 C         -71.0925   30.8291  -74.5651 C.2       10 UNK         0.4899 
     24 O         -70.3161   31.7689  -74.3850 O.2       10 UNK        -0.4839 
     25 CA        -71.4537   30.3766  -75.9946 C.3       9 UNK         0.0222 
     26 CB        -70.5504   31.0038  -77.0781 C.3       9 UNK        -0.1966 
     27 N         -71.5051   28.9142  -76.1272 N.am      9 UNK        -0.4218 
     28 C         -70.4955   28.0466  -75.9395 C.2       9 UNK         0.5020 
     29 O         -69.3410   28.3814  -75.6710 O.2       9 UNK        -0.5274 
     30 CA        -70.8178   26.5448  -76.0555 C.3       8 UNK         0.0270 
     31 CB        -70.7431   25.8712  -74.6743 C.3       8 UNK        -0.1976 
     32 N         -72.1281   26.2775  -76.6575 N.am      8 UNK        -0.4313 
     33 C         -72.3753   26.3275  -77.9758 C.2       8 UNK         0.5041 
     34 O         -71.5112   26.5784  -78.8167 O.2       8 UNK        -0.5577 
     35 CA        -73.8155   26.0606  -78.4526 C.3       7 UNK         0.0284 
     36 CB        -73.9146   24.6770  -79.1155 C.3       7 UNK        -0.1958 
     37 N         -74.8174   26.1588  -77.3883 N.am      7 UNK        -0.4454 
     38 C         -75.2289   27.3101  -76.8347 C.2       7 UNK         0.5089 
     39 O         -74.8006   28.4162  -77.1649 O.2       7 UNK        -0.5125 
     40 CA        -76.2481   27.2077  -75.6844 C.3       6 UNK         0.0408 
     41 CB        -77.6809   27.2770  -76.2301 C.3       6 UNK        -0.1791 
     42 N         -76.0933   25.9925  -74.8792 N.am      6 UNK        -0.4762 
     43 C         -74.9791   25.6642  -74.2050 C.2       6 UNK         0.5007 
     44 O         -73.9950   26.4017  -74.1367 O.2       6 UNK        -0.5032 
     45 CA        -74.8934   24.2562  -73.5766 C.3       5 UNK         0.0783 
     46 C46       -74.9148   24.2917  -72.0254 C.3       11 UNK        -0.0857 
     47 S47       -76.5868   24.3102  -71.2865 S.3       11 UNK        -0.2512 
     48 C48       -76.5889   25.8475  -70.3154 C.3       11 UNK         0.0225 
     49 N         -75.8573   23.2972  -74.1292 N.am      5 UNK        -0.4615 
     50 C         -75.9144   22.8896  -75.4036 C.2       4 UNK         0.5053 
     51 O         -75.1173   23.2508  -76.2690 O.2       4 UNK        -0.5105 
     52 CA        -77.0801   21.9618  -75.7893 C.3       4 UNK         0.0263 
     53 CB        -76.6294   20.4931  -75.7475 C.3       4 UNK        -0.1981 
     54 N         -78.2813   22.1264  -74.9595 N.am      4 UNK        -0.4224 
     55 C         -79.0177   23.2446  -74.8879 C.2       3 UNK         0.4895 
     56 O         -78.7311   24.2930  -75.4695 O.2       3 UNK        -0.5091 
     57 CA        -80.2520   23.1919  -73.9738 C.3       3 UNK         0.0250 
     58 CB        -79.9204   23.7546  -72.5842 C.3       3 UNK        -0.1996 
     59 N         -81.3693   23.9508  -74.5323 N.am      3 UNK        -0.4254 
     60 C         -82.1201   23.5686  -75.5700 C.2       2 UNK         0.5004 
     61 O         -81.9548   22.5082  -76.1751 O.2       2 UNK        -0.5226 
     62 CA        -83.2670   24.5028  -76.0005 C.3       2 UNK         0.0269 
     63 CB        -84.4931   24.3268  -75.0829 C.3       2 UNK        -0.1926 
     64 N         -82.9164   25.9250  -76.1471 N.am      2 UNK        -0.4687 
     65 C         -82.5238   26.8101  -75.2160 C.2       1 UNK         0.5165 
     66 O         -82.3313   26.5225  -74.0328 O.2       1 UNK        -0.5079 
     67 H67       -86.6301   28.5563  -77.0742 H         1 UNK         0.0900 
     68 H68       -86.2787   30.2465  -76.7028 H         1 UNK         0.0900 
     69 H69       -85.4284   29.4368  -78.0201 H         1 UNK         0.0900 
     70 H70       -83.3487   28.8893  -77.4674 H         1 UNK         0.2959 
     71 H71       -81.5459   28.2252  -76.4465 H         1 UNK         0.1079 
     72 H72       -82.4560   29.0890  -73.6656 H         1 UNK         0.0837 
     73 H73       -82.2530   30.2893  -74.9016 H         1 UNK         0.0837 
     74 H74       -80.5740   27.9426  -72.4884 H         1 UNK         0.0685 
     75 H75       -80.3193   29.6057  -72.0004 H         1 UNK         0.0685 
     76 H76       -79.0105   26.7391  -71.1703 H         1 UNK         0.1434 
     77 H77       -74.8254   27.6221  -71.3983 H         1 UNK         0.1329 
     78 H78       -77.6609   30.2039  -73.3082 H         1 UNK         0.1335 
     79 H79       -74.2667   29.2054  -73.4538 H         1 UNK         0.0680 
     80 H80       -75.3651   30.5210  -73.7448 H         1 UNK         0.0680 
     81 H81       -72.8800   28.8367  -71.4699 H         1 UNK         0.1032 
     82 H82       -72.4875   30.0137  -70.2482 H         1 UNK         0.1032 
     83 H83       -71.3463   31.4416  -71.9785 H         1 UNK         0.0461 
     84 H84       -69.4716   31.3203  -70.7254 H         1 UNK         0.3453 
     85 H85       -68.4704   29.8962  -70.6141 H         1 UNK         0.3453 
     86 H86       -72.2556   29.3548  -73.8197 H         1 UNK         0.2984 
     87 H87       -72.4703   30.7298  -76.1744 H         1 UNK         0.0554 
     88 H88       -70.6216   32.0920  -77.0630 H         1 UNK         0.0847 
     89 H89       -70.8405   30.6750  -78.0759 H         1 UNK         0.0847 
     90 H90       -69.5008   30.7469  -76.9320 H         1 UNK         0.0847 
     91 H91       -72.4117   28.5305  -76.3608 H         1 UNK         0.3141 
     92 H92       -70.0492   26.0952  -76.6881 H         1 UNK         0.0743 
     93 H93       -69.7344   25.9410  -74.2649 H         1 UNK         0.0784 
     94 H94       -71.4100   26.3450  -73.9536 H         1 UNK         0.0784 
     95 H95       -70.9979   24.8127  -74.7287 H         1 UNK         0.0784 
     96 H96       -72.8930   26.0977  -76.0180 H         1 UNK         0.3213 
     97 H97       -74.0501   26.8146  -79.2074 H         1 UNK         0.0855 
     98 H98       -73.6502   23.8773  -78.4229 H         1 UNK         0.0814 
     99 H99       -73.2373   24.6041  -79.9676 H         1 UNK         0.0814 
    100 H100      -74.9214   24.4826  -79.4856 H         1 UNK         0.0814 
    101 H101      -75.1797   25.2839  -77.0245 H         1 UNK         0.3105 
    102 H102      -76.0918   28.0631  -75.0278 H         1 UNK         0.0547 
    103 H103      -77.8792   26.4818  -76.9497 H         1 UNK         0.0837 
    104 H104      -77.8628   28.2284  -76.7314 H         1 UNK         0.0837 
    105 H105      -78.4122   27.1860  -75.4271 H         1 UNK         0.0837 
    106 H106      -76.8646   25.3349  -74.9009 H         1 UNK         0.3020 
    107 H107      -73.9056   23.8899  -73.8667 H         1 UNK         0.1245 
    108 H108      -74.3198   25.1226  -71.6415 H         1 UNK         0.0781 
    109 H109      -74.4209   23.3946  -71.6492 H         1 UNK         0.0781 
    110 H110      -75.6381   25.9616  -69.7926 H         1 UNK         0.0836 
    111 H111      -77.3492   25.7650  -69.5373 H         1 UNK         0.0836 
    112 H112      -76.5635   22.9726  -73.4846 H         1 UNK         0.3022 
    113 H113      -77.3563   22.2050  -76.8175 H         1 UNK         0.0747 
    114 H114      -77.4105   19.8268  -76.1141 H         1 UNK         0.0793 
    115 H115      -75.7520   20.3363  -76.3770 H         1 UNK         0.0793 
    116 H116      -76.3651   20.1795  -74.7367 H         1 UNK         0.0793 
    117 H117      -78.5798   21.3152  -74.4365 H         1 UNK         0.3047 
    118 H118      -80.5712   22.1534  -73.8622 H         1 UNK         0.0822 
    119 H119      -80.7999   23.7743  -71.9404 H         1 UNK         0.0807 
    120 H120      -79.5264   24.7702  -72.6454 H         1 UNK         0.0807 
    121 H121      -79.1723   23.1384  -72.0856 H         1 UNK         0.0807 
    122 H122      -81.5658   24.8636  -74.1280 H         1 UNK         0.2946 
    123 H123      -83.5640   24.1732  -76.9980 H         1 UNK         0.1144 
    124 H124      -85.3421   24.9096  -75.4405 H         1 UNK         0.0793 
    125 H125      -84.2846   24.6350  -74.0580 H         1 UNK         0.0793 
    126 H126      -84.8077   23.2828  -75.0490 H         1 UNK         0.0793 
    127 H127      -83.0235   26.2823  -77.0866 H         1 UNK         0.2896 
@<TRIPOS>BOND
     1    1    2 1    
     2    1   67 1    
     3    1   68 1    
     4    1   69 1    
     5    2    3 2    
     6    2    4 am   BACKBONE|DICT|INTERRES
     7    4    5 1    
     8    4   70 1    
     9    5    6 1    
    10    5   65 1    
    11    5   71 1    
    12    6    7 1    
    13    6   72 1    
    14    6   73 1    
    15    7    8 1    
    16    8    9 1    
    17    8   74 1    
    18    8   75 1    
    19    9   10 ar   
    20    9   14 ar   
    21   10   11 ar   
    22   10   76 1    
    23   11   12 ar   
    24   11   48 1    
    25   12   13 ar   
    26   12   77 1    
    27   13   14 ar   
    28   13   15 1    
    29   14   78 1    
    30   15   16 1    
    31   15   79 1    
    32   15   80 1    
    33   16   17 1    
    34   17   18 1    
    35   17   81 1    
    36   17   82 1    
    37   18   19 1    
    38   18   22 1    
    39   18   83 1    
    40   19   20 am   BACKBONE|DICT|INTERRES
    41   19   21 2    
    42   20   84 1    
    43   20   85 1    
    44   22   23 am   BACKBONE|DICT|INTERRES
    45   22   86 1    
    46   23   24 2    
    47   23   25 1    
    48   25   26 1    
    49   25   27 1    
    50   25   87 1    
    51   26   88 1    
    52   26   89 1    
    53   26   90 1    
    54   27   28 am   BACKBONE|DICT|INTERRES
    55   27   91 1    
    56   28   29 2    
    57   28   30 1    
    58   30   31 1    
    59   30   32 1    
    60   30   92 1    
    61   31   93 1    
    62   31   94 1    
    63   31   95 1    
    64   32   33 am   BACKBONE|DICT|INTERRES
    65   32   96 1    
    66   33   34 2    
    67   33   35 1    
    68   35   36 1    
    69   35   37 1    
    70   35   97 1    
    71   36   98 1    
    72   36   99 1    
    73   36  100 1    
    74   37   38 am   BACKBONE|DICT|INTERRES
    75   37  101 1    
    76   38   39 2    
    77   38   40 1    
    78   40   41 1    
    79   40   42 1    
    80   40  102 1    
    81   41  103 1    
    82   41  104 1    
    83   41  105 1    
    84   42   43 am   BACKBONE|DICT|INTERRES
    85   42  106 1    
    86   43   44 2    
    87   43   45 1    
    88   45   46 1    
    89   45   49 1    
    90   45  107 1    
    91   46   47 1    
    92   46  108 1    
    93   46  109 1    
    94   47   48 1    
    95   48  110 1    
    96   48  111 1    
    97   49   50 am   BACKBONE|DICT|INTERRES
    98   49  112 1    
    99   50   51 2    
   100   50   52 1    
   101   52   53 1    
   102   52   54 1    
   103   52  113 1    
   104   53  114 1    
   105   53  115 1    
   106   53  116 1    
   107   54   55 am   BACKBONE|DICT|INTERRES
   108   54  117 1    
   109   55   56 2    
   110   55   57 1    
   111   57   58 1    
   112   57   59 1    
   113   57  118 1    
   114   58  119 1    
   115   58  120 1    
   116   58  121 1    
   117   59   60 am   BACKBONE|DICT|INTERRES
   118   59  122 1    
   119   60   61 2    
   120   60   62 1    
   121   62   63 1    
   122   62   64 1    
   123   62  123 1    
   124   63  124 1    
   125   63  125 1    
   126   63  126 1    
   127   64   65 am   BACKBONE|DICT|INTERRES
   128   64  127 1    
   129   65   66 2    
@<TRIPOS>SUBSTRUCTURE
     1 UNK         1 GROUP             0       ****    0 ROOT    
