@<TRIPOS>MOLECULE
3R135
127   129    1
SMALL
USER_CHARGES


@<TRIPOS>ATOM
      1 CA        -81.4646   21.6304  -71.9063 C.3       0 UNK        -0.1998 
      2 C         -81.1506   22.9421  -72.6072 C.2       0 UNK         0.4909 
      3 O         -80.7925   22.9326  -73.7862 O.2       0 UNK        -0.5240 
      4 N         -81.3065   24.0737  -71.9022 N.am      1 UNK        -0.4739 
      5 CA        -80.9770   25.4438  -72.3410 C.3       1 UNK         0.0864 
      6 C6        -79.4465   25.6668  -72.4820 C.3       11 UNK        -0.0881 
      7 S7        -78.5504   25.5379  -70.8982 S.3       11 UNK        -0.2682 
      8 C8        -78.6334   27.2491  -70.2682 C.3       11 UNK         0.0289 
      9 C9        -77.8293   28.2247  -71.1179 C.ar      11 UNK        -0.0687 
     10 C10       -78.4616   28.9705  -72.1174 C.ar      11 UNK        -0.0823 
     11 C11       -77.7280   29.8369  -72.9304 C.ar      11 UNK        -0.0830 
     12 C12       -76.3561   29.9863  -72.7116 C.ar      11 UNK        -0.1021 
     13 C13       -75.7167   29.2749  -71.6916 C.ar      11 UNK        -0.0753 
     14 C14       -76.4568   28.3876  -70.9030 C.ar      11 UNK        -0.0933 
     15 C15       -74.2217   29.4458  -71.4709 C.3       11 UNK         0.0166 
     16 S16       -73.8003   31.1460  -70.9826 S.3       11 UNK        -0.2615 
     17 C17       -71.9777   31.1028  -71.0594 C.3       11 UNK        -0.0865 
     18 CA        -71.4432   31.5575  -72.4431 C.3       10 UNK         0.0862 
     19 C         -69.9456   31.9546  -72.3614 C.2       10 UNK         0.5551 
     20 N         -69.6561   33.2214  -72.0986 N.am      10 UNK        -0.7319 
     21 O         -69.0482   31.1240  -72.4923 O.2       10 UNK        -0.5018 
     22 N         -71.6521   30.5176  -73.4577 N.am      10 UNK        -0.4509 
     23 C         -71.8194   30.7301  -74.7646 C.2       10 UNK         0.4899 
     24 O         -71.9186   31.8527  -75.2614 O.2       10 UNK        -0.4839 
     25 CA        -71.8934   29.5020  -75.6957 C.3       9 UNK         0.0222 
     26 CB        -70.5336   29.2557  -76.3769 C.3       9 UNK        -0.1966 
     27 N         -72.4144   28.2540  -75.1127 N.am      9 UNK        -0.4218 
     28 C         -71.8957   27.4839  -74.1430 C.2       9 UNK         0.5020 
     29 O         -70.9166   27.7964  -73.4651 O.2       9 UNK        -0.5274 
     30 CA        -72.5791   26.1308  -73.8800 C.3       8 UNK         0.0270 
     31 CB        -73.7580   26.2806  -72.9062 C.3       8 UNK        -0.1976 
     32 N         -73.0441   25.4738  -75.1014 N.am      8 UNK        -0.4313 
     33 C         -72.2507   24.9656  -76.0547 C.2       8 UNK         0.5041 
     34 O         -71.0201   24.9856  -76.0109 O.2       8 UNK        -0.5577 
     35 CA        -72.9512   24.3229  -77.2614 C.3       7 UNK         0.0284 
     36 CB        -73.4387   22.9039  -76.9224 C.3       7 UNK        -0.1958 
     37 N         -74.0781   25.1355  -77.7202 N.am      7 UNK        -0.4454 
     38 C         -73.9628   26.1998  -78.5259 C.2       7 UNK         0.5089 
     39 O         -72.9005   26.5700  -79.0260 O.2       7 UNK        -0.5125 
     40 CA        -75.2496   26.9900  -78.8297 C.3       6 UNK         0.0408 
     41 CB        -75.8973   26.4801  -80.1265 C.3       6 UNK        -0.1791 
     42 N         -76.2395   26.9491  -77.7496 N.am      6 UNK        -0.4762 
     43 C         -76.0675   27.4961  -76.5362 C.2       6 UNK         0.5007 
     44 O         -75.0374   28.0734  -76.1873 O.2       6 UNK        -0.5032 
     45 CA        -77.2159   27.2980  -75.5201 C.3       5 UNK         0.0783 
     46 C46       -78.3718   28.3122  -75.7360 C.3       11 UNK        -0.0857 
     47 S47       -77.8655   30.0701  -75.6954 S.3       11 UNK        -0.2512 
     48 C48       -78.4185   30.6079  -74.0455 C.3       11 UNK         0.0225 
     49 N         -77.7189   25.9149  -75.5255 N.am      5 UNK        -0.4615 
     50 C         -76.9705   24.8131  -75.3580 C.2       4 UNK         0.5053 
     51 O         -75.7631   24.8497  -75.1282 O.2       4 UNK        -0.5105 
     52 CA        -77.6380   23.4351  -75.5123 C.3       4 UNK         0.0263 
     53 CB        -77.4563   22.5746  -74.2493 C.3       4 UNK        -0.1981 
     54 N         -79.0551   23.4721  -75.8879 N.am      4 UNK        -0.4224 
     55 C         -79.5022   23.7330  -77.1252 C.2       3 UNK         0.4895 
     56 O         -78.7705   24.0994  -78.0456 O.2       3 UNK        -0.5091 
     57 CA        -81.0037   23.5573  -77.3897 C.3       3 UNK         0.0250 
     58 CB        -81.3403   22.0719  -77.6028 C.3       3 UNK        -0.1996 
     59 N         -81.8248   24.0880  -76.2991 N.am      3 UNK        -0.4254 
     60 C         -82.8143   24.9810  -76.4540 C.2       2 UNK         0.5004 
     61 O         -83.1409   25.4606  -77.5405 O.2       2 UNK        -0.5226 
     62 CA        -83.5896   25.4163  -75.1938 C.3       2 UNK         0.0269 
     63 CB        -84.9249   24.6600  -75.0984 C.3       2 UNK        -0.1926 
     64 N         -82.8437   25.2241  -73.9479 N.am      2 UNK        -0.4687 
     65 C         -81.7381   25.9021  -73.6103 C.2       1 UNK         0.5165 
     66 O         -81.3099   26.8467  -74.2742 O.2       1 UNK        -0.5079 
     67 H67       -80.5815   20.9922  -71.8993 H         1 UNK         0.0900 
     68 H68       -82.2607   21.1054  -72.4333 H         1 UNK         0.0900 
     69 H69       -81.7813   21.7840  -70.8750 H         1 UNK         0.0900 
     70 H70       -81.6253   24.0048  -70.9453 H         1 UNK         0.2959 
     71 H71       -81.3368   26.1084  -71.5542 H         1 UNK         0.1079 
     72 H72       -79.0298   24.9320  -73.1657 H         1 UNK         0.0837 
     73 H73       -79.2119   26.6249  -72.9374 H         1 UNK         0.0837 
     74 H74       -78.2564   27.2625  -69.2445 H         1 UNK         0.0685 
     75 H75       -79.6764   27.5636  -70.2089 H         1 UNK         0.0685 
     76 H76       -79.5251   28.8568  -72.2793 H         1 UNK         0.1434 
     77 H77       -75.7831   30.6574  -73.3374 H         1 UNK         0.1329 
     78 H78       -75.9665   27.8171  -70.1261 H         1 UNK         0.1335 
     79 H79       -73.7092   29.1945  -72.3977 H         1 UNK         0.0680 
     80 H80       -73.8559   28.7567  -70.7084 H         1 UNK         0.0680 
     81 H81       -71.6179   31.7688  -70.2723 H         1 UNK         0.1032 
     82 H82       -71.6086   30.1088  -70.7996 H         1 UNK         0.1032 
     83 H83       -72.0008   32.4478  -72.7425 H         1 UNK         0.0461 
     84 H84       -68.6895   33.4988  -72.0258 H         1 UNK         0.3453 
     85 H85       -70.3843   33.9087  -71.9796 H         1 UNK         0.3453 
     86 H86       -71.4462   29.5636  -73.1754 H         1 UNK         0.2984 
     87 H87       -72.6063   29.7623  -76.4797 H         1 UNK         0.0554 
     88 H88       -70.1935   30.1476  -76.9047 H         1 UNK         0.0847 
     89 H89       -70.5982   28.4503  -77.1091 H         1 UNK         0.0847 
     90 H90       -69.7601   28.9920  -75.6549 H         1 UNK         0.0847 
     91 H91       -73.2934   27.9485  -75.5277 H         1 UNK         0.3141 
     92 H92       -71.8400   25.4748  -73.4153 H         1 UNK         0.0743 
     93 H93       -73.4237   26.6870  -71.9518 H         1 UNK         0.0784 
     94 H94       -74.5294   26.9423  -73.3022 H         1 UNK         0.0784 
     95 H95       -74.2247   25.3176  -72.6973 H         1 UNK         0.0784 
     96 H96       -74.0522   25.3492  -75.1913 H         1 UNK         0.3213 
     97 H97       -72.2202   24.2416  -78.0692 H         1 UNK         0.0855 
     98 H98       -74.1699   22.9028  -76.1135 H         1 UNK         0.0814 
     99 H99       -72.6061   22.2737  -76.6071 H         1 UNK         0.0814 
    100 H100      -73.8963   22.4250  -77.7882 H         1 UNK         0.0814 
    101 H101      -74.9819   24.9365  -77.3152 H         1 UNK         0.3105 
    102 H102      -74.9642   28.0336  -78.9791 H         1 UNK         0.0547 
    103 H103      -76.2379   25.4482  -80.0300 H         1 UNK         0.0837 
    104 H104      -76.7540   27.0916  -80.4101 H         1 UNK         0.0837 
    105 H105      -75.1895   26.5136  -80.9561 H         1 UNK         0.0837 
    106 H106      -77.1036   26.4598  -77.9402 H         1 UNK         0.3020 
    107 H107      -76.7926   27.4754  -74.5287 H         1 UNK         0.1245 
    108 H108      -79.1438   28.1575  -74.9825 H         1 UNK         0.0781 
    109 H109      -78.8584   28.1300  -76.6958 H         1 UNK         0.0781 
    110 H110      -78.2040   31.6712  -73.9302 H         1 UNK         0.0836 
    111 H111      -79.5032   30.5064  -73.9814 H         1 UNK         0.0836 
    112 H112      -78.7008   25.7935  -75.7246 H         1 UNK         0.3022 
    113 H113      -77.0984   22.9323  -76.3179 H         1 UNK         0.0747 
    114 H114      -76.4011   22.4761  -73.9907 H         1 UNK         0.0793 
    115 H115      -77.8438   21.5671  -74.4009 H         1 UNK         0.0793 
    116 H116      -77.9619   22.9953  -73.3817 H         1 UNK         0.0793 
    117 H117      -79.7160   23.1933  -75.1628 H         1 UNK         0.3047 
    118 H118      -81.2201   24.0868  -78.3201 H         1 UNK         0.0822 
    119 H119      -80.7342   21.6431  -78.4021 H         1 UNK         0.0807 
    120 H120      -82.3855   21.9414  -77.8837 H         1 UNK         0.0807 
    121 H121      -81.1606   21.4829  -76.7022 H         1 UNK         0.0807 
    122 H122      -81.6178   23.7488  -75.3642 H         1 UNK         0.2946 
    123 H123      -83.8033   26.4826  -75.3000 H         1 UNK         0.1144 
    124 H124      -85.5214   24.8058  -76.0003 H         1 UNK         0.0793 
    125 H125      -85.5222   25.0124  -74.2574 H         1 UNK         0.0793 
    126 H126      -84.7731   23.5865  -74.9784 H         1 UNK         0.0793 
    127 H127      -83.1313   24.4605  -73.3527 H         1 UNK         0.2896 
@<TRIPOS>BOND
     1    1    2 1    
     2    1   67 1    
     3    1   68 1    
     4    1   69 1    
     5    2    3 2    
     6    2    4 am   BACKBONE|DICT|INTERRES
     7    4    5 1    
     8    4   70 1    
     9    5    6 1    
    10    5   65 1    
    11    5   71 1    
    12    6    7 1    
    13    6   72 1    
    14    6   73 1    
    15    7    8 1    
    16    8    9 1    
    17    8   74 1    
    18    8   75 1    
    19    9   10 ar   
    20    9   14 ar   
    21   10   11 ar   
    22   10   76 1    
    23   11   12 ar   
    24   11   48 1    
    25   12   13 ar   
    26   12   77 1    
    27   13   14 ar   
    28   13   15 1    
    29   14   78 1    
    30   15   16 1    
    31   15   79 1    
    32   15   80 1    
    33   16   17 1    
    34   17   18 1    
    35   17   81 1    
    36   17   82 1    
    37   18   19 1    
    38   18   22 1    
    39   18   83 1    
    40   19   20 am   BACKBONE|DICT|INTERRES
    41   19   21 2    
    42   20   84 1    
    43   20   85 1    
    44   22   23 am   BACKBONE|DICT|INTERRES
    45   22   86 1    
    46   23   24 2    
    47   23   25 1    
    48   25   26 1    
    49   25   27 1    
    50   25   87 1    
    51   26   88 1    
    52   26   89 1    
    53   26   90 1    
    54   27   28 am   BACKBONE|DICT|INTERRES
    55   27   91 1    
    56   28   29 2    
    57   28   30 1    
    58   30   31 1    
    59   30   32 1    
    60   30   92 1    
    61   31   93 1    
    62   31   94 1    
    63   31   95 1    
    64   32   33 am   BACKBONE|DICT|INTERRES
    65   32   96 1    
    66   33   34 2    
    67   33   35 1    
    68   35   36 1    
    69   35   37 1    
    70   35   97 1    
    71   36   98 1    
    72   36   99 1    
    73   36  100 1    
    74   37   38 am   BACKBONE|DICT|INTERRES
    75   37  101 1    
    76   38   39 2    
    77   38   40 1    
    78   40   41 1    
    79   40   42 1    
    80   40  102 1    
    81   41  103 1    
    82   41  104 1    
    83   41  105 1    
    84   42   43 am   BACKBONE|DICT|INTERRES
    85   42  106 1    
    86   43   44 2    
    87   43   45 1    
    88   45   46 1    
    89   45   49 1    
    90   45  107 1    
    91   46   47 1    
    92   46  108 1    
    93   46  109 1    
    94   47   48 1    
    95   48  110 1    
    96   48  111 1    
    97   49   50 am   BACKBONE|DICT|INTERRES
    98   49  112 1    
    99   50   51 2    
   100   50   52 1    
   101   52   53 1    
   102   52   54 1    
   103   52  113 1    
   104   53  114 1    
   105   53  115 1    
   106   53  116 1    
   107   54   55 am   BACKBONE|DICT|INTERRES
   108   54  117 1    
   109   55   56 2    
   110   55   57 1    
   111   57   58 1    
   112   57   59 1    
   113   57  118 1    
   114   58  119 1    
   115   58  120 1    
   116   58  121 1    
   117   59   60 am   BACKBONE|DICT|INTERRES
   118   59  122 1    
   119   60   61 2    
   120   60   62 1    
   121   62   63 1    
   122   62   64 1    
   123   62  123 1    
   124   63  124 1    
   125   63  125 1    
   126   63  126 1    
   127   64   65 am   BACKBONE|DICT|INTERRES
   128   64  127 1    
   129   65   66 2    
@<TRIPOS>SUBSTRUCTURE
     1 UNK         1 GROUP             0       ****    0 ROOT    
