@<TRIPOS>MOLECULE
3R135
127   129    1
SMALL
USER_CHARGES


@<TRIPOS>ATOM
      1 CA        -79.8374   28.8369  -77.7575 C.3       0 UNK        -0.1998 
      2 C         -79.7580   28.1897  -76.3842 C.2       0 UNK         0.4909 
      3 O         -78.8756   27.3626  -76.1495 O.2       0 UNK        -0.5240 
      4 N         -80.6785   28.5582  -75.4841 N.am      1 UNK        -0.4739 
      5 CA        -80.7941   28.0421  -74.1160 C.3       1 UNK         0.0864 
      6 C6        -81.4577   29.0711  -73.1612 C.3       11 UNK        -0.0881 
      7 S7        -80.5785   30.6667  -73.0656 S.3       11 UNK        -0.2682 
      8 C8        -79.7151   30.5287  -71.4682 C.3       11 UNK         0.0289 
      9 C9        -78.4089   29.7639  -71.6086 C.ar      11 UNK        -0.0687 
     10 C10       -78.3240   28.4141  -71.2537 C.ar      11 UNK        -0.0823 
     11 C11       -77.1188   27.7178  -71.4003 C.ar      11 UNK        -0.0830 
     12 C12       -75.9915   28.3863  -71.8902 C.ar      11 UNK        -0.1021 
     13 C13       -76.0647   29.7385  -72.2362 C.ar      11 UNK        -0.0753 
     14 C14       -77.2755   30.4197  -72.0953 C.ar      11 UNK        -0.0933 
     15 C15       -74.8498   30.4691  -72.7832 C.3       11 UNK         0.0166 
     16 S16       -73.9665   31.3815  -71.4809 S.3       11 UNK        -0.2615 
     17 C17       -72.7689   30.1303  -70.9053 C.3       11 UNK        -0.0865 
     18 CA        -71.3108   30.4667  -71.3200 C.3       10 UNK         0.0862 
     19 C         -70.3215   29.4631  -70.6764 C.2       10 UNK         0.5551 
     20 N         -69.8432   29.7479  -69.4735 N.am      10 UNK        -0.7319 
     21 O         -70.0116   28.4153  -71.2418 O.2       10 UNK        -0.5018 
     22 N         -71.1339   30.4671  -72.7793 N.am      10 UNK        -0.4509 
     23 C         -70.8628   31.5360  -73.5390 C.2       10 UNK         0.4899 
     24 O         -70.7920   32.6871  -73.1072 O.2       10 UNK        -0.4839 
     25 CA        -70.6001   31.2910  -75.0392 C.3       9 UNK         0.0222 
     26 CB        -69.0943   31.3829  -75.3386 C.3       9 UNK        -0.1966 
     27 N         -71.1066   30.0028  -75.5253 N.am      9 UNK        -0.4218 
     28 C         -72.4002   29.7281  -75.7385 C.2       9 UNK         0.5020 
     29 O         -73.3055   30.5538  -75.6014 O.2       9 UNK        -0.5274 
     30 CA        -72.7206   28.2686  -76.1165 C.3       8 UNK         0.0270 
     31 CB        -72.5395   27.3489  -74.8944 C.3       8 UNK        -0.1976 
     32 N         -74.0775   28.0878  -76.6414 N.am      8 UNK        -0.4313 
     33 C         -74.5476   28.6115  -77.7816 C.2       8 UNK         0.5041 
     34 O         -73.8578   29.2591  -78.5735 O.2       8 UNK        -0.5577 
     35 CA        -76.0386   28.3487  -78.0848 C.3       7 UNK         0.0284 
     36 CB        -76.4567   28.8291  -79.4922 C.3       7 UNK        -0.1958 
     37 N         -76.4338   26.9480  -77.8777 N.am      7 UNK        -0.4454 
     38 C         -75.9127   25.8695  -78.4862 C.2       7 UNK         0.5089 
     39 O         -75.0194   25.9224  -79.3339 O.2       7 UNK        -0.5125 
     40 CA        -76.4968   24.5000  -78.0837 C.3       6 UNK         0.0408 
     41 CB        -75.6209   23.3162  -78.5447 C.3       6 UNK        -0.1791 
     42 N         -76.7967   24.3791  -76.6539 N.am      6 UNK        -0.4762 
     43 C         -75.9508   24.5176  -75.6207 C.2       6 UNK         0.5007 
     44 O         -74.7692   24.8399  -75.7317 O.2       6 UNK        -0.5032 
     45 CA        -76.5304   24.2302  -74.2246 C.3       5 UNK         0.0783 
     46 C46       -77.3578   25.4395  -73.7292 C.3       11 UNK        -0.0857 
     47 S47       -78.0859   25.1932  -72.0752 S.3       11 UNK        -0.2512 
     48 C48       -77.0299   26.2437  -71.0260 C.3       11 UNK         0.0225 
     49 N         -77.3062   22.9871  -74.2523 N.am      5 UNK        -0.4615 
     50 C         -76.7797   21.7592  -74.1554 C.2       4 UNK         0.5053 
     51 O         -75.5805   21.5423  -73.9808 O.2       4 UNK        -0.5105 
     52 CA        -77.7485   20.5658  -74.2533 C.3       4 UNK         0.0263 
     53 CB        -78.1870   20.1200  -72.8488 C.3       4 UNK        -0.1981 
     54 N         -78.9379   20.8585  -75.0560 N.am      4 UNK        -0.4224 
     55 C         -78.9562   20.9348  -76.3949 C.2       3 UNK         0.4895 
     56 O         -77.9920   20.6655  -77.1109 O.2       3 UNK        -0.5091 
     57 CA        -80.2679   21.4191  -77.0452 C.3       3 UNK         0.0250 
     58 CB        -81.1481   20.2221  -77.4393 C.3       3 UNK        -0.1996 
     59 N         -81.0427   22.3390  -76.2002 N.am      3 UNK        -0.4254 
     60 C         -80.5995   23.5340  -75.7878 C.2       2 UNK         0.5004 
     61 O         -79.4988   23.9943  -76.0989 O.2       2 UNK        -0.5226 
     62 CA        -81.4879   24.3078  -74.8103 C.3       2 UNK         0.0269 
     63 CB        -81.5063   23.6115  -73.4329 C.3       2 UNK        -0.1926 
     64 N         -80.9547   25.6629  -74.6869 N.am      2 UNK        -0.4687 
     65 C         -81.5681   26.7058  -74.1240 C.2       1 UNK         0.5165 
     66 O         -82.7075   26.6452  -73.6564 O.2       1 UNK        -0.5079 
     67 H67       -80.7896   29.3437  -77.9128 H         1 UNK         0.0900 
     68 H68       -79.7273   28.0815  -78.5350 H         1 UNK         0.0900 
     69 H69       -79.0394   29.5692  -77.8728 H         1 UNK         0.0900 
     70 H70       -81.3776   29.2388  -75.7449 H         1 UNK         0.2959 
     71 H71       -79.7921   27.8322  -73.7335 H         1 UNK         0.1079 
     72 H72       -81.5483   28.6520  -72.1574 H         1 UNK         0.0837 
     73 H73       -82.4782   29.2859  -73.4845 H         1 UNK         0.0837 
     74 H74       -79.5048   31.5339  -71.0995 H         1 UNK         0.0685 
     75 H75       -80.3632   30.0663  -70.7223 H         1 UNK         0.0685 
     76 H76       -79.1967   27.8994  -70.8753 H         1 UNK         0.1434 
     77 H77       -75.0575   27.8541  -72.0060 H         1 UNK         0.1329 
     78 H78       -77.3374   31.4642  -72.3694 H         1 UNK         0.1335 
     79 H79       -74.1731   29.7678  -73.2701 H         1 UNK         0.0680 
     80 H80       -75.1626   31.1737  -73.5553 H         1 UNK         0.0680 
     81 H81       -73.0542   29.1405  -71.2648 H         1 UNK         0.1032 
     82 H82       -72.8511   30.0848  -69.8176 H         1 UNK         0.1032 
     83 H83       -71.0669   31.4551  -70.9252 H         1 UNK         0.0461 
     84 H84       -70.0977   30.6002  -68.9983 H         1 UNK         0.3453 
     85 H85       -69.2082   29.1004  -69.0331 H         1 UNK         0.3453 
     86 H86       -71.1009   29.5519  -73.2030 H         1 UNK         0.2984 
     87 H87       -71.1035   32.0873  -75.5919 H         1 UNK         0.0554 
     88 H88       -68.8939   31.2863  -76.4059 H         1 UNK         0.0847 
     89 H89       -68.5292   30.6090  -74.8176 H         1 UNK         0.0847 
     90 H90       -68.6917   32.3466  -75.0230 H         1 UNK         0.0847 
     91 H91       -70.4233   29.2722  -75.6685 H         1 UNK         0.3141 
     92 H92       -72.0198   27.9618  -76.8958 H         1 UNK         0.0743 
     93 H93       -73.2633   27.5704  -74.1091 H         1 UNK         0.0784 
     94 H94       -72.6557   26.3013  -75.1705 H         1 UNK         0.0784 
     95 H95       -71.5447   27.4470  -74.4584 H         1 UNK         0.0784 
     96 H96       -74.7078   27.5377  -76.0767 H         1 UNK         0.3213 
     97 H97       -76.6012   28.9345  -77.3563 H         1 UNK         0.0855 
     98 H98       -75.8787   28.3375  -80.2754 H         1 UNK         0.0814 
     99 H99       -76.2992   29.9029  -79.5995 H         1 UNK         0.0814 
    100 H100      -77.5108   28.6350  -79.6861 H         1 UNK         0.0814 
    101 H101      -77.1823   26.8023  -77.2052 H         1 UNK         0.3105 
    102 H102      -77.4557   24.4187  -78.5974 H         1 UNK         0.0547 
    103 H103      -75.4988   23.3159  -79.6284 H         1 UNK         0.0837 
    104 H104      -74.6243   23.3568  -78.1040 H         1 UNK         0.0837 
    105 H105      -76.0697   22.3614  -78.2710 H         1 UNK         0.0837 
    106 H106      -77.7729   24.1714  -76.4395 H         1 UNK         0.3020 
    107 H107      -75.6867   24.1007  -73.5424 H         1 UNK         0.1245 
    108 H108      -78.1824   25.6356  -74.4110 H         1 UNK         0.0781 
    109 H109      -76.7495   26.3448  -73.7361 H         1 UNK         0.0781 
    110 H110      -76.0014   25.8845  -71.0862 H         1 UNK         0.0836 
    111 H111      -77.3350   26.1222  -69.9858 H         1 UNK         0.0836 
    112 H112      -78.2914   23.0859  -74.4483 H         1 UNK         0.3022 
    113 H113      -77.2094   19.7393  -74.7218 H         1 UNK         0.0747 
    114 H114      -78.8224   19.2352  -72.8930 H         1 UNK         0.0793 
    115 H115      -77.3227   19.8655  -72.2336 H         1 UNK         0.0793 
    116 H116      -78.7372   20.9049  -72.3279 H         1 UNK         0.0793 
    117 H117      -79.7880   21.0670  -74.5538 H         1 UNK         0.3047 
    118 H118      -79.9955   21.9581  -77.9555 H         1 UNK         0.0822 
    119 H119      -82.0353   20.5438  -77.9851 H         1 UNK         0.0807 
    120 H120      -81.4760   19.6555  -76.5668 H         1 UNK         0.0807 
    121 H121      -80.6034   19.5346  -78.0882 H         1 UNK         0.0807 
    122 H122      -81.9552   22.0229  -75.9029 H         1 UNK         0.2946 
    123 H123      -82.4986   24.3582  -75.2213 H         1 UNK         0.1144 
    124 H124      -82.1336   24.1462  -72.7200 H         1 UNK         0.0793 
    125 H125      -80.5061   23.5406  -73.0041 H         1 UNK         0.0793 
    126 H126      -81.9051   22.5990  -73.5033 H         1 UNK         0.0793 
    127 H127      -80.0578   25.8046  -75.1439 H         1 UNK         0.2896 
@<TRIPOS>BOND
     1    1    2 1    
     2    1   67 1    
     3    1   68 1    
     4    1   69 1    
     5    2    3 2    
     6    2    4 am   BACKBONE|DICT|INTERRES
     7    4    5 1    
     8    4   70 1    
     9    5    6 1    
    10    5   65 1    
    11    5   71 1    
    12    6    7 1    
    13    6   72 1    
    14    6   73 1    
    15    7    8 1    
    16    8    9 1    
    17    8   74 1    
    18    8   75 1    
    19    9   10 ar   
    20    9   14 ar   
    21   10   11 ar   
    22   10   76 1    
    23   11   12 ar   
    24   11   48 1    
    25   12   13 ar   
    26   12   77 1    
    27   13   14 ar   
    28   13   15 1    
    29   14   78 1    
    30   15   16 1    
    31   15   79 1    
    32   15   80 1    
    33   16   17 1    
    34   17   18 1    
    35   17   81 1    
    36   17   82 1    
    37   18   19 1    
    38   18   22 1    
    39   18   83 1    
    40   19   20 am   BACKBONE|DICT|INTERRES
    41   19   21 2    
    42   20   84 1    
    43   20   85 1    
    44   22   23 am   BACKBONE|DICT|INTERRES
    45   22   86 1    
    46   23   24 2    
    47   23   25 1    
    48   25   26 1    
    49   25   27 1    
    50   25   87 1    
    51   26   88 1    
    52   26   89 1    
    53   26   90 1    
    54   27   28 am   BACKBONE|DICT|INTERRES
    55   27   91 1    
    56   28   29 2    
    57   28   30 1    
    58   30   31 1    
    59   30   32 1    
    60   30   92 1    
    61   31   93 1    
    62   31   94 1    
    63   31   95 1    
    64   32   33 am   BACKBONE|DICT|INTERRES
    65   32   96 1    
    66   33   34 2    
    67   33   35 1    
    68   35   36 1    
    69   35   37 1    
    70   35   97 1    
    71   36   98 1    
    72   36   99 1    
    73   36  100 1    
    74   37   38 am   BACKBONE|DICT|INTERRES
    75   37  101 1    
    76   38   39 2    
    77   38   40 1    
    78   40   41 1    
    79   40   42 1    
    80   40  102 1    
    81   41  103 1    
    82   41  104 1    
    83   41  105 1    
    84   42   43 am   BACKBONE|DICT|INTERRES
    85   42  106 1    
    86   43   44 2    
    87   43   45 1    
    88   45   46 1    
    89   45   49 1    
    90   45  107 1    
    91   46   47 1    
    92   46  108 1    
    93   46  109 1    
    94   47   48 1    
    95   48  110 1    
    96   48  111 1    
    97   49   50 am   BACKBONE|DICT|INTERRES
    98   49  112 1    
    99   50   51 2    
   100   50   52 1    
   101   52   53 1    
   102   52   54 1    
   103   52  113 1    
   104   53  114 1    
   105   53  115 1    
   106   53  116 1    
   107   54   55 am   BACKBONE|DICT|INTERRES
   108   54  117 1    
   109   55   56 2    
   110   55   57 1    
   111   57   58 1    
   112   57   59 1    
   113   57  118 1    
   114   58  119 1    
   115   58  120 1    
   116   58  121 1    
   117   59   60 am   BACKBONE|DICT|INTERRES
   118   59  122 1    
   119   60   61 2    
   120   60   62 1    
   121   62   63 1    
   122   62   64 1    
   123   62  123 1    
   124   63  124 1    
   125   63  125 1    
   126   63  126 1    
   127   64   65 am   BACKBONE|DICT|INTERRES
   128   64  127 1    
   129   65   66 2    
@<TRIPOS>SUBSTRUCTURE
     1 UNK         1 GROUP             0       ****    0 ROOT    
