@<TRIPOS>MOLECULE
3R135
127   129    1
SMALL
USER_CHARGES


@<TRIPOS>ATOM
      1 CA        -85.7893   29.3980  -75.5159 C.3       0 UNK        -0.1998 
      2 C         -84.3630   29.0548  -75.9196 C.2       0 UNK         0.4909 
      3 O         -84.0729   28.9601  -77.1127 O.2       0 UNK        -0.5240 
      4 N         -83.4748   28.8826  -74.9334 N.am      1 UNK        -0.4739 
      5 CA        -82.0751   28.4877  -75.1052 C.3       1 UNK         0.0864 
      6 C6        -81.1442   29.1902  -74.0755 C.3       11 UNK        -0.0881 
      7 S7        -81.6789   29.0515  -72.3317 S.3       11 UNK        -0.2682 
      8 C8        -80.3877   30.0204  -71.4908 C.3       11 UNK         0.0289 
      9 C9        -79.0174   29.3641  -71.5908 C.ar      11 UNK        -0.0687 
     10 C10       -78.7711   28.1520  -70.9390 C.ar      11 UNK        -0.0823 
     11 C11       -77.5108   27.5514  -71.0083 C.ar      11 UNK        -0.0830 
     12 C12       -76.4940   28.1735  -71.7362 C.ar      11 UNK        -0.1021 
     13 C13       -76.7251   29.3850  -72.3923 C.ar      11 UNK        -0.0753 
     14 C14       -77.9905   29.9755  -72.3174 C.ar      11 UNK        -0.0933 
     15 C15       -75.6150   30.0515  -73.1913 C.3       11 UNK         0.0166 
     16 S16       -74.5712   31.1150  -72.1472 S.3       11 UNK        -0.2615 
     17 C17       -73.2977   29.9398  -71.5626 C.3       11 UNK        -0.0865 
     18 CA        -71.9716   30.0634  -72.3594 C.3       10 UNK         0.0862 
     19 C         -70.8220   29.2315  -71.7164 C.2       10 UNK         0.5551 
     20 N         -70.0528   28.4501  -72.4667 N.am      10 UNK        -0.7319 
     21 O         -70.6120   29.3060  -70.5082 O.2       10 UNK        -0.5018 
     22 N         -72.1754   29.7714  -73.7870 N.am      10 UNK        -0.4509 
     23 C         -71.5966   30.4316  -74.7959 C.2       10 UNK         0.4899 
     24 O         -70.8600   31.4082  -74.6465 O.2       10 UNK        -0.4839 
     25 CA        -71.8908   29.8951  -76.2111 C.3       9 UNK         0.0222 
     26 CB        -70.9050   30.4303  -77.2710 C.3       9 UNK        -0.1966 
     27 N         -71.9691   28.4293  -76.2784 N.am      9 UNK        -0.4218 
     28 C         -71.0161   27.5470  -75.9286 C.2       9 UNK         0.5020 
     29 O         -69.9377   27.8743  -75.4311 O.2       9 UNK        -0.5274 
     30 CA        -71.3018   26.0463  -76.1367 C.3       8 UNK         0.0270 
     31 CB        -71.2393   25.2833  -74.8013 C.3       8 UNK        -0.1976 
     32 N         -72.5929   25.7935  -76.7800 N.am      8 UNK        -0.4313 
     33 C         -72.8146   25.8602  -78.1005 C.2       8 UNK         0.5041 
     34 O         -71.9274   26.0587  -78.9311 O.2       8 UNK        -0.5577 
     35 CA        -74.2699   25.7068  -78.5816 C.3       7 UNK         0.0284 
     36 CB        -74.4979   24.2933  -79.1399 C.3       7 UNK        -0.1958 
     37 N         -75.2738   25.9972  -77.5493 N.am      7 UNK        -0.4454 
     38 C         -75.4666   27.2051  -76.9944 C.2       7 UNK         0.5089 
     39 O         -74.8232   28.2073  -77.3059 O.2       7 UNK        -0.5125 
     40 CA        -76.4842   27.2937  -75.8442 C.3       6 UNK         0.0408 
     41 CB        -77.9167   27.4140  -76.3815 C.3       6 UNK        -0.1791 
     42 N         -76.3819   26.1586  -74.9230 N.am      6 UNK        -0.4762 
     43 C         -75.3020   25.8891  -74.1733 C.2       6 UNK         0.5007 
     44 O         -74.3209   26.6329  -74.1231 O.2       6 UNK        -0.5032 
     45 CA        -75.2508   24.5480  -73.4181 C.3       5 UNK         0.0783 
     46 C46       -75.5063   24.6802  -71.8952 C.3       11 UNK        -0.0857 
     47 S47       -77.2620   24.8192  -71.4091 S.3       11 UNK        -0.2512 
     48 C48       -77.2453   26.2440  -70.2779 C.3       11 UNK         0.0225 
     49 N         -76.1030   23.5370  -74.0526 N.am      5 UNK        -0.4615 
     50 C         -75.6440   22.4609  -74.7030 C.2       4 UNK         0.5053 
     51 O         -74.4484   22.1941  -74.8288 O.2       4 UNK        -0.5105 
     52 CA        -76.6829   21.5101  -75.3251 C.3       4 UNK         0.0263 
     53 CB        -77.0570   20.4038  -74.3255 C.3       4 UNK        -0.1981 
     54 N         -77.9058   22.1635  -75.7991 N.am      4 UNK        -0.4224 
     55 C         -77.9588   23.1144  -76.7420 C.2       3 UNK         0.4895 
     56 O         -76.9713   23.6005  -77.2919 O.2       3 UNK        -0.5091 
     57 CA        -79.3542   23.6435  -77.1110 C.3       3 UNK         0.0250 
     58 CB        -80.0309   22.7022  -78.1205 C.3       3 UNK        -0.1996 
     59 N         -80.2660   23.8883  -75.9849 N.am      3 UNK        -0.4254 
     60 C         -79.9779   24.5355  -74.8461 C.2       2 UNK         0.5004 
     61 O         -78.8434   24.8776  -74.5101 O.2       2 UNK        -0.5226 
     62 CA        -81.1685   24.9084  -73.9498 C.3       2 UNK         0.0269 
     63 CB        -80.8964   24.5678  -72.4756 C.3       2 UNK        -0.1926 
     64 N         -81.4456   26.3403  -74.0624 N.am      2 UNK        -0.4687 
     65 C         -81.9707   26.9461  -75.1354 C.2       1 UNK         0.5165 
     66 O         -82.3677   26.3302  -76.1263 O.2       1 UNK        -0.5079 
     67 H67       -85.9022   29.4654  -74.4339 H         1 UNK         0.0900 
     68 H68       -86.4763   28.6352  -75.8815 H         1 UNK         0.0900 
     69 H69       -86.0815   30.3551  -75.9471 H         1 UNK         0.0900 
     70 H70       -83.7743   28.9680  -73.9717 H         1 UNK         0.2959 
     71 H71       -81.7396   28.8155  -76.0921 H         1 UNK         0.1079 
     72 H72       -80.1205   28.8239  -74.1706 H         1 UNK         0.0837 
     73 H73       -81.0931   30.2532  -74.3171 H         1 UNK         0.0837 
     74 H74       -80.3701   31.0301  -71.9041 H         1 UNK         0.0685 
     75 H75       -80.6557   30.1253  -70.4386 H         1 UNK         0.0685 
     76 H76       -79.5647   27.6790  -70.3765 H         1 UNK         0.1434 
     77 H77       -75.5220   27.7096  -71.7961 H         1 UNK         0.1329 
     78 H78       -78.1730   30.9147  -72.8216 H         1 UNK         0.1335 
     79 H79       -76.0455   30.6592  -73.9886 H         1 UNK         0.0680 
     80 H80       -74.9984   29.3003  -73.6851 H         1 UNK         0.0680 
     81 H81       -73.1291   30.1536  -70.5055 H         1 UNK         0.1032 
     82 H82       -73.6694   28.9168  -71.6026 H         1 UNK         0.1032 
     83 H83       -71.6480   31.1013  -72.2618 H         1 UNK         0.0461 
     84 H84       -69.3122   27.9282  -72.0265 H         1 UNK         0.3453 
     85 H85       -70.1691   28.4020  -73.4723 H         1 UNK         0.3453 
     86 H86       -72.7358   28.9582  -73.9995 H         1 UNK         0.2984 
     87 H87       -72.8848   30.2620  -76.4711 H         1 UNK         0.0554 
     88 H88       -71.1508   30.0574  -78.2653 H         1 UNK         0.0847 
     89 H89       -69.8771   30.1413  -77.0490 H         1 UNK         0.0847 
     90 H90       -70.9335   31.5196  -77.3196 H         1 UNK         0.0847 
     91 H91       -72.8420   28.0699  -76.6503 H         1 UNK         0.3141 
     92 H92       -70.5100   25.6560  -76.7795 H         1 UNK         0.0743 
     93 H93       -70.2376   25.3358  -74.3728 H         1 UNK         0.0784 
     94 H94       -71.9235   25.6960  -74.0609 H         1 UNK         0.0784 
     95 H95       -71.4784   24.2275  -74.9318 H         1 UNK         0.0784 
     96 H96       -73.3839   25.6566  -76.1665 H         1 UNK         0.3213 
     97 H97       -74.4162   26.4212  -79.3947 H         1 UNK         0.0855 
     98 H98       -75.4930   24.1940  -79.5740 H         1 UNK         0.0814 
     99 H99       -74.3924   23.5325  -78.3652 H         1 UNK         0.0814 
    100 H100      -73.7786   24.0610  -79.9265 H         1 UNK         0.0814 
    101 H101      -75.8590   25.2179  -77.2566 H         1 UNK         0.3105 
    102 H102      -76.2694   28.2001  -75.2787 H         1 UNK         0.0547 
    103 H103      -78.1927   26.5520  -76.9864 H         1 UNK         0.0837 
    104 H104      -78.6367   27.4977  -75.5682 H         1 UNK         0.0837 
    105 H105      -78.0254   28.3008  -77.0069 H         1 UNK         0.0837 
    106 H106      -77.2001   25.5559  -74.8507 H         1 UNK         0.3020 
    107 H107      -74.2072   24.2386  -73.5112 H         1 UNK         0.1245 
    108 H108      -74.9250   25.5043  -71.4797 H         1 UNK         0.0781 
    109 H109      -75.1200   23.7878  -71.4006 H         1 UNK         0.0781 
    110 H110      -78.0083   26.0818  -69.5150 H         1 UNK         0.0836 
    111 H111      -76.2971   26.2958  -69.7411 H         1 UNK         0.0836 
    112 H112      -77.1018   23.7065  -74.0094 H         1 UNK         0.3022 
    113 H113      -76.2112   21.0418  -76.1916 H         1 UNK         0.0747 
    114 H114      -76.1678   19.8787  -73.9733 H         1 UNK         0.0793 
    115 H115      -77.7102   19.6594  -74.7813 H         1 UNK         0.0793 
    116 H116      -77.5653   20.8077  -73.4488 H         1 UNK         0.0793 
    117 H117      -78.7751   21.8551  -75.3890 H         1 UNK         0.3047 
    118 H118      -79.2091   24.6032  -77.6080 H         1 UNK         0.0822 
    119 H119      -79.3812   22.5138  -78.9768 H         1 UNK         0.0807 
    120 H120      -80.9543   23.1329  -78.5084 H         1 UNK         0.0807 
    121 H121      -80.2718   21.7361  -77.6752 H         1 UNK         0.0807 
    122 H122      -81.2378   23.6794  -76.1651 H         1 UNK         0.2946 
    123 H123      -82.0499   24.3495  -74.2723 H         1 UNK         0.1144 
    124 H124      -81.7840   24.7263  -71.8631 H         1 UNK         0.0793 
    125 H125      -80.0954   25.1818  -72.0634 H         1 UNK         0.0793 
    126 H126      -80.6019   23.5240  -72.3600 H         1 UNK         0.0793 
    127 H127      -81.1473   26.9224  -73.2904 H         1 UNK         0.2896 
@<TRIPOS>BOND
     1    1    2 1    
     2    1   67 1    
     3    1   68 1    
     4    1   69 1    
     5    2    3 2    
     6    2    4 am   BACKBONE|DICT|INTERRES
     7    4    5 1    
     8    4   70 1    
     9    5    6 1    
    10    5   65 1    
    11    5   71 1    
    12    6    7 1    
    13    6   72 1    
    14    6   73 1    
    15    7    8 1    
    16    8    9 1    
    17    8   74 1    
    18    8   75 1    
    19    9   10 ar   
    20    9   14 ar   
    21   10   11 ar   
    22   10   76 1    
    23   11   12 ar   
    24   11   48 1    
    25   12   13 ar   
    26   12   77 1    
    27   13   14 ar   
    28   13   15 1    
    29   14   78 1    
    30   15   16 1    
    31   15   79 1    
    32   15   80 1    
    33   16   17 1    
    34   17   18 1    
    35   17   81 1    
    36   17   82 1    
    37   18   19 1    
    38   18   22 1    
    39   18   83 1    
    40   19   20 am   BACKBONE|DICT|INTERRES
    41   19   21 2    
    42   20   84 1    
    43   20   85 1    
    44   22   23 am   BACKBONE|DICT|INTERRES
    45   22   86 1    
    46   23   24 2    
    47   23   25 1    
    48   25   26 1    
    49   25   27 1    
    50   25   87 1    
    51   26   88 1    
    52   26   89 1    
    53   26   90 1    
    54   27   28 am   BACKBONE|DICT|INTERRES
    55   27   91 1    
    56   28   29 2    
    57   28   30 1    
    58   30   31 1    
    59   30   32 1    
    60   30   92 1    
    61   31   93 1    
    62   31   94 1    
    63   31   95 1    
    64   32   33 am   BACKBONE|DICT|INTERRES
    65   32   96 1    
    66   33   34 2    
    67   33   35 1    
    68   35   36 1    
    69   35   37 1    
    70   35   97 1    
    71   36   98 1    
    72   36   99 1    
    73   36  100 1    
    74   37   38 am   BACKBONE|DICT|INTERRES
    75   37  101 1    
    76   38   39 2    
    77   38   40 1    
    78   40   41 1    
    79   40   42 1    
    80   40  102 1    
    81   41  103 1    
    82   41  104 1    
    83   41  105 1    
    84   42   43 am   BACKBONE|DICT|INTERRES
    85   42  106 1    
    86   43   44 2    
    87   43   45 1    
    88   45   46 1    
    89   45   49 1    
    90   45  107 1    
    91   46   47 1    
    92   46  108 1    
    93   46  109 1    
    94   47   48 1    
    95   48  110 1    
    96   48  111 1    
    97   49   50 am   BACKBONE|DICT|INTERRES
    98   49  112 1    
    99   50   51 2    
   100   50   52 1    
   101   52   53 1    
   102   52   54 1    
   103   52  113 1    
   104   53  114 1    
   105   53  115 1    
   106   53  116 1    
   107   54   55 am   BACKBONE|DICT|INTERRES
   108   54  117 1    
   109   55   56 2    
   110   55   57 1    
   111   57   58 1    
   112   57   59 1    
   113   57  118 1    
   114   58  119 1    
   115   58  120 1    
   116   58  121 1    
   117   59   60 am   BACKBONE|DICT|INTERRES
   118   59  122 1    
   119   60   61 2    
   120   60   62 1    
   121   62   63 1    
   122   62   64 1    
   123   62  123 1    
   124   63  124 1    
   125   63  125 1    
   126   63  126 1    
   127   64   65 am   BACKBONE|DICT|INTERRES
   128   64  127 1    
   129   65   66 2    
@<TRIPOS>SUBSTRUCTURE
     1 UNK         1 GROUP             0       ****    0 ROOT    
