@<TRIPOS>MOLECULE
3R135
127   129    1
SMALL
USER_CHARGES


@<TRIPOS>ATOM
      1 CA        -75.9074   22.6585  -74.0780 C.3       0 UNK        -0.1998 
      2 C         -77.3103   23.0565  -73.6470 C.2       0 UNK         0.4909 
      3 O         -78.2612   22.8480  -74.4028 O.2       0 UNK        -0.5240 
      4 N         -77.4533   23.5983  -72.4271 N.am      1 UNK        -0.4739 
      5 CA        -78.6606   24.1903  -71.8113 C.3       1 UNK         0.0864 
      6 C6        -79.1954   25.4209  -72.5944 C.3       11 UNK        -0.0881 
      7 S7        -77.9926   26.7815  -72.7088 S.3       11 UNK        -0.2682 
      8 C8        -78.7986   28.0845  -71.7269 C.3       11 UNK         0.0289 
      9 C9        -78.3748   29.4575  -72.2183 C.ar      11 UNK        -0.0687 
     10 C10       -78.8472   29.9165  -73.4506 C.ar      11 UNK        -0.0823 
     11 C11       -78.4576   31.1639  -73.9402 C.ar      11 UNK        -0.0830 
     12 C12       -77.6146   31.9701  -73.1712 C.ar      11 UNK        -0.1021 
     13 C13       -77.1505   31.5314  -71.9274 C.ar      11 UNK        -0.0753 
     14 C14       -77.5255   30.2679  -71.4574 C.ar      11 UNK        -0.0933 
     15 C15       -76.2657   32.4444  -71.0925 C.3       11 UNK         0.0166 
     16 S16       -74.5661   32.5091  -71.7355 S.3       11 UNK        -0.2615 
     17 C17       -73.8230   31.0648  -70.9086 C.3       11 UNK        -0.0865 
     18 CA        -72.4553   30.6834  -71.5325 C.3       10 UNK         0.0862 
     19 C         -71.6490   29.7327  -70.5967 C.2       10 UNK         0.5551 
     20 N         -71.2109   28.5577  -71.0311 N.am      10 UNK        -0.7319 
     21 O         -71.4039   30.0779  -69.4432 O.2       10 UNK        -0.5018 
     22 N         -72.6151   30.2002  -72.9140 N.am      10 UNK        -0.4509 
     23 C         -71.6669   30.2397  -73.8579 C.2       10 UNK         0.4899 
     24 O         -70.5680   30.7750  -73.7007 O.2       10 UNK        -0.4839 
     25 CA        -72.0061   29.5439  -75.1946 C.3       9 UNK         0.0222 
     26 CB        -70.7602   29.2893  -76.0681 C.3       9 UNK        -0.1966 
     27 N         -72.7708   28.2985  -75.0363 N.am      9 UNK        -0.4218 
     28 C         -72.4437   27.2372  -74.2804 C.2       9 UNK         0.5020 
     29 O         -71.4451   27.1781  -73.5624 O.2       9 UNK        -0.5274 
     30 CA        -73.4024   26.0389  -74.3244 C.3       8 UNK         0.0270 
     31 CB        -74.6925   26.3529  -73.5558 C.3       8 UNK        -0.1976 
     32 N         -73.7263   25.6359  -75.6923 N.am      8 UNK        -0.4313 
     33 C         -72.8447   25.1089  -76.5549 C.2       8 UNK         0.5041 
     34 O         -71.6788   24.8334  -76.2694 O.2       8 UNK        -0.5577 
     35 CA        -73.3451   24.8501  -77.9823 C.3       7 UNK         0.0284 
     36 CB        -74.0630   23.4948  -78.0650 C.3       7 UNK        -0.1958 
     37 N         -74.2293   25.9241  -78.4410 N.am      7 UNK        -0.4454 
     38 C         -73.7868   27.1018  -78.9052 C.2       7 UNK         0.5089 
     39 O         -72.5957   27.3712  -79.0620 O.2       7 UNK        -0.5125 
     40 CA        -74.8413   28.1645  -79.2624 C.3       6 UNK         0.0408 
     41 CB        -75.1792   28.0987  -80.7602 C.3       6 UNK        -0.1791 
     42 N         -76.0792   28.0675  -78.4846 N.am      6 UNK        -0.4762 
     43 C         -76.1782   28.3105  -77.1688 C.2       6 UNK         0.5007 
     44 O         -75.2176   28.5859  -76.4482 O.2       6 UNK        -0.5032 
     45 CA        -77.5893   28.1664  -76.5529 C.3       5 UNK         0.0783 
     46 C46       -78.5216   29.3498  -76.9380 C.3       11 UNK        -0.0857 
     47 S47       -77.8676   31.0320  -76.6333 S.3       11 UNK        -0.2512 
     48 C48       -78.9436   31.6415  -75.2981 C.3       11 UNK         0.0225 
     49 N         -78.2307   26.8937  -76.9200 N.am      5 UNK        -0.4615 
     50 C         -77.6964   25.6673  -76.8548 C.2       4 UNK         0.5053 
     51 O         -76.5764   25.4219  -76.4005 O.2       4 UNK        -0.5105 
     52 CA        -78.5499   24.5423  -77.4610 C.3       4 UNK         0.0263 
     53 CB        -77.7045   23.3351  -77.9006 C.3       4 UNK        -0.1981 
     54 N         -79.5705   24.0748  -76.5270 N.am      4 UNK        -0.4224 
     55 C         -80.8147   24.5638  -76.4472 C.2       3 UNK         0.4895 
     56 O         -81.1746   25.5768  -77.0492 O.2       3 UNK        -0.5091 
     57 CA        -81.8572   23.7867  -75.6201 C.3       3 UNK         0.0250 
     58 CB        -82.7529   22.9804  -76.5876 C.3       3 UNK        -0.1996 
     59 N         -81.2720   22.9109  -74.5939 N.am      3 UNK        -0.4254 
     60 C         -81.9627   22.2330  -73.6587 C.2       2 UNK         0.5004 
     61 O         -83.1897   22.2496  -73.5577 O.2       2 UNK        -0.5226 
     62 CA        -81.1456   21.4222  -72.6324 C.3       2 UNK         0.0269 
     63 CB        -80.8292   20.0192  -73.1742 C.3       2 UNK        -0.1926 
     64 N         -79.8987   22.1107  -72.3082 N.am      2 UNK        -0.4687 
     65 C         -79.8388   23.2199  -71.5648 C.2       1 UNK         0.5165 
     66 O         -80.7121   23.5319  -70.7536 O.2       1 UNK        -0.5079 
     67 H67       -75.1779   22.8031  -73.2816 H         1 UNK         0.0900 
     68 H68       -75.5998   23.2594  -74.9330 H         1 UNK         0.0900 
     69 H69       -75.8880   21.6100  -74.3731 H         1 UNK         0.0900 
     70 H70       -76.6255   23.6857  -71.8543 H         1 UNK         0.2959 
     71 H71       -78.3532   24.5326  -70.8216 H         1 UNK         0.1079 
     72 H72       -79.4702   25.1399  -73.6118 H         1 UNK         0.0837 
     73 H73       -80.1130   25.7990  -72.1400 H         1 UNK         0.0837 
     74 H74       -79.8837   28.0106  -71.8082 H         1 UNK         0.0685 
     75 H75       -78.5532   27.9469  -70.6728 H         1 UNK         0.0685 
     76 H76       -79.5045   29.2880  -74.0351 H         1 UNK         0.1434 
     77 H77       -77.3138   32.9412  -73.5408 H         1 UNK         0.1329 
     78 H78       -77.1648   29.9200  -70.4992 H         1 UNK         0.1335 
     79 H79       -76.2572   32.1346  -70.0462 H         1 UNK         0.0680 
     80 H80       -76.6815   33.4530  -71.1057 H         1 UNK         0.0680 
     81 H81       -73.7155   31.3194  -69.8522 H         1 UNK         0.1032 
     82 H82       -74.5116   30.2191  -70.9508 H         1 UNK         0.1032 
     83 H83       -71.8587   31.5969  -71.5756 H         1 UNK         0.0461 
     84 H84       -70.6879   27.9711  -70.4012 H         1 UNK         0.3453 
     85 H85       -71.3667   28.2479  -71.9859 H         1 UNK         0.3453 
     86 H86       -73.4891   29.7443  -73.1288 H         1 UNK         0.2984 
     87 H87       -72.6567   30.2305  -75.7381 H         1 UNK         0.0554 
     88 H88       -71.0308   28.8265  -77.0175 H         1 UNK         0.0847 
     89 H89       -70.0458   28.6341  -75.5683 H         1 UNK         0.0847 
     90 H90       -70.2434   30.2216  -76.2990 H         1 UNK         0.0847 
     91 H91       -73.6462   28.2636  -75.5588 H         1 UNK         0.3141 
     92 H92       -72.9109   25.1963  -73.8335 H         1 UNK         0.0743 
     93 H93       -74.4784   26.6366  -72.5245 H         1 UNK         0.0784 
     94 H94       -75.2484   27.1726  -74.0123 H         1 UNK         0.0784 
     95 H95       -75.3523   25.4876  -73.5232 H         1 UNK         0.0784 
     96 H96       -74.6871   25.7709  -75.9965 H         1 UNK         0.3213 
     97 H97       -72.4750   24.8066  -78.6417 H         1 UNK         0.0855 
     98 H98       -74.4542   23.3083  -79.0651 H         1 UNK         0.0814 
     99 H99       -74.8878   23.4326  -77.3566 H         1 UNK         0.0814 
    100 H100      -73.3766   22.6807  -77.8287 H         1 UNK         0.0814 
    101 H101      -75.2212   25.8023  -78.2928 H         1 UNK         0.3105 
    102 H102      -74.3988   29.1419  -79.0579 H         1 UNK         0.0547 
    103 H103      -75.6490   27.1517  -81.0285 H         1 UNK         0.0837 
    104 H104      -75.8530   28.9044  -81.0521 H         1 UNK         0.0837 
    105 H105      -74.2783   28.1981  -81.3676 H         1 UNK         0.0837 
    106 H106      -76.9190   27.8312  -78.9932 H         1 UNK         0.3020 
    107 H107      -77.4612   28.1627  -75.4683 H         1 UNK         0.1245 
    108 H108      -79.4785   29.2395  -76.4270 H         1 UNK         0.0781 
    109 H109      -78.7610   29.2980  -78.0017 H         1 UNK         0.0781 
    110 H110      -78.9480   32.7323  -75.3268 H         1 UNK         0.0836 
    111 H111      -79.9766   31.3347  -75.4691 H         1 UNK         0.0836 
    112 H112      -79.1758   26.9629  -77.2735 H         1 UNK         0.3022 
    113 H113      -79.0312   24.9357  -78.3594 H         1 UNK         0.0747 
    114 H114      -76.9492   23.6342  -78.6273 H         1 UNK         0.0793 
    115 H115      -78.3224   22.5738  -78.3769 H         1 UNK         0.0793 
    116 H116      -77.1948   22.8676  -77.0574 H         1 UNK         0.0793 
    117 H117      -79.2670   23.3296  -75.9088 H         1 UNK         0.3047 
    118 H118      -82.4728   24.5304  -75.1100 H         1 UNK         0.0822 
    119 H119      -83.1253   23.6089  -77.3981 H         1 UNK         0.0807 
    120 H120      -83.6293   22.5678  -76.0892 H         1 UNK         0.0807 
    121 H121      -82.2062   22.1536  -77.0425 H         1 UNK         0.0807 
    122 H122      -80.2597   22.8650  -74.5569 H         1 UNK         0.2946 
    123 H123      -81.7460   21.3186  -71.7253 H         1 UNK         0.1144 
    124 H124      -80.2888   19.4238  -72.4381 H         1 UNK         0.0793 
    125 H125      -80.2242   20.0614  -74.0810 H         1 UNK         0.0793 
    126 H126      -81.7459   19.4801  -73.4173 H         1 UNK         0.0793 
    127 H127      -79.1362   21.9841  -72.9658 H         1 UNK         0.2896 
@<TRIPOS>BOND
     1    1    2 1    
     2    1   67 1    
     3    1   68 1    
     4    1   69 1    
     5    2    3 2    
     6    2    4 am   BACKBONE|DICT|INTERRES
     7    4    5 1    
     8    4   70 1    
     9    5    6 1    
    10    5   65 1    
    11    5   71 1    
    12    6    7 1    
    13    6   72 1    
    14    6   73 1    
    15    7    8 1    
    16    8    9 1    
    17    8   74 1    
    18    8   75 1    
    19    9   10 ar   
    20    9   14 ar   
    21   10   11 ar   
    22   10   76 1    
    23   11   12 ar   
    24   11   48 1    
    25   12   13 ar   
    26   12   77 1    
    27   13   14 ar   
    28   13   15 1    
    29   14   78 1    
    30   15   16 1    
    31   15   79 1    
    32   15   80 1    
    33   16   17 1    
    34   17   18 1    
    35   17   81 1    
    36   17   82 1    
    37   18   19 1    
    38   18   22 1    
    39   18   83 1    
    40   19   20 am   BACKBONE|DICT|INTERRES
    41   19   21 2    
    42   20   84 1    
    43   20   85 1    
    44   22   23 am   BACKBONE|DICT|INTERRES
    45   22   86 1    
    46   23   24 2    
    47   23   25 1    
    48   25   26 1    
    49   25   27 1    
    50   25   87 1    
    51   26   88 1    
    52   26   89 1    
    53   26   90 1    
    54   27   28 am   BACKBONE|DICT|INTERRES
    55   27   91 1    
    56   28   29 2    
    57   28   30 1    
    58   30   31 1    
    59   30   32 1    
    60   30   92 1    
    61   31   93 1    
    62   31   94 1    
    63   31   95 1    
    64   32   33 am   BACKBONE|DICT|INTERRES
    65   32   96 1    
    66   33   34 2    
    67   33   35 1    
    68   35   36 1    
    69   35   37 1    
    70   35   97 1    
    71   36   98 1    
    72   36   99 1    
    73   36  100 1    
    74   37   38 am   BACKBONE|DICT|INTERRES
    75   37  101 1    
    76   38   39 2    
    77   38   40 1    
    78   40   41 1    
    79   40   42 1    
    80   40  102 1    
    81   41  103 1    
    82   41  104 1    
    83   41  105 1    
    84   42   43 am   BACKBONE|DICT|INTERRES
    85   42  106 1    
    86   43   44 2    
    87   43   45 1    
    88   45   46 1    
    89   45   49 1    
    90   45  107 1    
    91   46   47 1    
    92   46  108 1    
    93   46  109 1    
    94   47   48 1    
    95   48  110 1    
    96   48  111 1    
    97   49   50 am   BACKBONE|DICT|INTERRES
    98   49  112 1    
    99   50   51 2    
   100   50   52 1    
   101   52   53 1    
   102   52   54 1    
   103   52  113 1    
   104   53  114 1    
   105   53  115 1    
   106   53  116 1    
   107   54   55 am   BACKBONE|DICT|INTERRES
   108   54  117 1    
   109   55   56 2    
   110   55   57 1    
   111   57   58 1    
   112   57   59 1    
   113   57  118 1    
   114   58  119 1    
   115   58  120 1    
   116   58  121 1    
   117   59   60 am   BACKBONE|DICT|INTERRES
   118   59  122 1    
   119   60   61 2    
   120   60   62 1    
   121   62   63 1    
   122   62   64 1    
   123   62  123 1    
   124   63  124 1    
   125   63  125 1    
   126   63  126 1    
   127   64   65 am   BACKBONE|DICT|INTERRES
   128   64  127 1    
   129   65   66 2    
@<TRIPOS>SUBSTRUCTURE
     1 UNK         1 GROUP             0       ****    0 ROOT    
