@<TRIPOS>MOLECULE
3R135
127   129    1
SMALL
USER_CHARGES


@<TRIPOS>ATOM
      1 CA        -83.9338   24.3463  -74.0808 C.3       0 UNK        -0.1998 
      2 C         -82.9677   25.5034  -74.2806 C.2       0 UNK         0.4909 
      3 O         -82.6838   25.8746  -75.4197 O.2       0 UNK        -0.5240 
      4 N         -82.4603   26.0810  -73.1834 N.am      1 UNK        -0.4739 
      5 CA        -81.5394   27.2227  -73.1993 C.3       1 UNK         0.0864 
      6 C6        -81.3599   27.8333  -71.7885 C.3       11 UNK        -0.0881 
      7 S7        -80.9902   29.6178  -71.8709 S.3       11 UNK        -0.2682 
      8 C8        -79.5798   29.7685  -70.7325 C.3       11 UNK         0.0289 
      9 C9        -78.2722   29.2986  -71.3538 C.ar      11 UNK        -0.0687 
     10 C10       -77.7080   28.0756  -70.9808 C.ar      11 UNK        -0.0823 
     11 C11       -76.4697   27.6769  -71.4943 C.ar      11 UNK        -0.0830 
     12 C12       -75.7942   28.5116  -72.3903 C.ar      11 UNK        -0.1021 
     13 C13       -76.3471   29.7399  -72.7682 C.ar      11 UNK        -0.0753 
     14 C14       -77.5927   30.1195  -72.2581 C.ar      11 UNK        -0.0933 
     15 C15       -75.5903   30.6632  -73.7147 C.3       11 UNK         0.0166 
     16 S16       -75.2340   32.2883  -72.9721 S.3       11 UNK        -0.2615 
     17 C17       -74.0300   31.8513  -71.6700 C.3       11 UNK        -0.0865 
     18 CA        -72.6103   32.4241  -71.9529 C.3       10 UNK         0.0862 
     19 C         -71.6583   32.3089  -70.7211 C.2       10 UNK         0.5551 
     20 N         -70.3535   32.1508  -70.9087 N.am      10 UNK        -0.7319 
     21 O         -72.0992   32.3996  -69.5777 O.2       10 UNK        -0.5018 
     22 N         -72.0373   31.9483  -73.2281 N.am      10 UNK        -0.4509 
     23 C         -71.7019   30.6849  -73.5184 C.2       10 UNK         0.4899 
     24 O         -71.8236   29.7381  -72.7376 O.2       10 UNK        -0.4839 
     25 CA        -71.0831   30.4583  -74.9094 C.3       9 UNK         0.0222 
     26 CB        -69.5939   30.8435  -74.9054 C.3       9 UNK        -0.1966 
     27 N         -71.2094   29.0607  -75.3257 N.am      9 UNK        -0.4218 
     28 C         -72.3450   28.4981  -75.7551 C.2       9 UNK         0.5020 
     29 O         -73.3872   29.1234  -75.9669 O.2       9 UNK        -0.5274 
     30 CA        -72.3104   26.9695  -75.9299 C.3       8 UNK         0.0270 
     31 CB        -72.4296   26.2814  -74.5596 C.3       8 UNK        -0.1976 
     32 N         -73.3900   26.4917  -76.7949 N.am      8 UNK        -0.4313 
     33 C         -73.4720   26.7121  -78.1133 C.2       8 UNK         0.5041 
     34 O         -72.5774   27.2425  -78.7765 O.2       8 UNK        -0.5577 
     35 CA        -74.7829   26.2702  -78.7905 C.3       7 UNK         0.0284 
     36 CB        -74.7093   26.2764  -80.3330 C.3       7 UNK        -0.1958 
     37 N         -75.2804   24.9855  -78.2844 N.am      7 UNK        -0.4454 
     38 C         -74.6996   23.7822  -78.4013 C.2       7 UNK         0.5089 
     39 O         -73.6267   23.5862  -78.9750 O.2       7 UNK        -0.5125 
     40 CA        -75.4684   22.5983  -77.7825 C.3       6 UNK         0.0408 
     41 CB        -74.6349   21.3005  -77.7187 C.3       6 UNK        -0.1791 
     42 N         -76.0606   22.9051  -76.4751 N.am      6 UNK        -0.4762 
     43 C         -75.4189   23.2229  -75.3380 C.2       6 UNK         0.5007 
     44 O         -74.1953   23.3308  -75.2651 O.2       6 UNK        -0.5032 
     45 CA        -76.2640   23.4501  -74.0602 C.3       5 UNK         0.0783 
     46 C46       -75.8980   24.7829  -73.3609 C.3       11 UNK        -0.0857 
     47 S47       -76.6926   24.9204  -71.7267 S.3       11 UNK        -0.2512 
     48 C48       -75.8441   26.3700  -71.0291 C.3       11 UNK         0.0225 
     49 N         -77.7060   23.3497  -74.3094 N.am      5 UNK        -0.4615 
     50 C         -78.3967   22.2080  -74.4133 C.2       4 UNK         0.5053 
     51 O         -77.9111   21.0926  -74.2266 O.2       4 UNK        -0.5105 
     52 CA        -79.8633   22.3320  -74.8587 C.3       4 UNK         0.0263 
     53 CB        -80.7962   22.4286  -73.6420 C.3       4 UNK        -0.1981 
     54 N         -80.0756   23.4737  -75.7580 N.am      4 UNK        -0.4224 
     55 C         -79.6078   23.5309  -77.0152 C.2       3 UNK         0.4895 
     56 O         -79.0240   22.5983  -77.5667 O.2       3 UNK        -0.5091 
     57 CA        -79.7587   24.8624  -77.7687 C.3       3 UNK         0.0250 
     58 CB        -81.1221   24.9421  -78.4726 C.3       3 UNK        -0.1996 
     59 N         -79.5734   26.0267  -76.8993 N.am      3 UNK        -0.4254 
     60 C         -78.3974   26.3865  -76.3618 C.2       2 UNK         0.5004 
     61 O         -77.3409   25.7955  -76.5795 O.2       2 UNK        -0.5226 
     62 CA        -78.3939   27.5854  -75.3969 C.3       2 UNK         0.0269 
     63 CB        -78.0635   28.8776  -76.1580 C.3       2 UNK        -0.1926 
     64 N         -79.6516   27.7618  -74.6665 N.am      2 UNK        -0.4687 
     65 C         -80.1881   26.8518  -73.8428 C.2       1 UNK         0.5165 
     66 O         -79.6767   25.7534  -73.6107 O.2       1 UNK        -0.5079 
     67 H67       -84.9597   24.6915  -74.2056 H         1 UNK         0.0900 
     68 H68       -83.7482   23.5665  -74.8189 H         1 UNK         0.0900 
     69 H69       -83.8378   23.9056  -73.0887 H         1 UNK         0.0900 
     70 H70       -82.6980   25.7159  -72.2724 H         1 UNK         0.2959 
     71 H71       -82.0176   27.9706  -73.8367 H         1 UNK         0.1079 
     72 H72       -80.6007   27.2985  -71.2145 H         1 UNK         0.0837 
     73 H73       -82.2837   27.7385  -71.2154 H         1 UNK         0.0837 
     74 H74       -79.7932   29.2238  -69.8113 H         1 UNK         0.0685 
     75 H75       -79.4786   30.8159  -70.4443 H         1 UNK         0.0685 
     76 H76       -78.2212   27.4380  -70.2739 H         1 UNK         0.1434 
     77 H77       -74.8280   28.2171  -72.7771 H         1 UNK         0.1329 
     78 H78       -78.0200   31.0715  -72.5424 H         1 UNK         0.1335 
     79 H79       -74.6500   30.2101  -74.0248 H         1 UNK         0.0680 
     80 H80       -76.1754   30.8118  -74.6218 H         1 UNK         0.0680 
     81 H81       -74.4245   32.2495  -70.7336 H         1 UNK         0.1032 
     82 H82       -73.9889   30.7697  -71.5346 H         1 UNK         0.1032 
     83 H83       -72.7293   33.4999  -72.0864 H         1 UNK         0.0461 
     84 H84       -69.7429   32.0892  -70.1092 H         1 UNK         0.3453 
     85 H85       -69.9766   32.0857  -71.8400 H         1 UNK         0.3453 
     86 H86       -71.8839   32.6631  -73.9249 H         1 UNK         0.2984 
     87 H87       -71.6066   31.0878  -75.6324 H         1 UNK         0.0554 
     88 H88       -69.4591   31.8949  -74.6483 H         1 UNK         0.0847 
     89 H89       -69.1429   30.6948  -75.8868 H         1 UNK         0.0847 
     90 H90       -69.0254   30.2564  -74.1827 H         1 UNK         0.0847 
     91 H91       -70.4181   28.4634  -75.1342 H         1 UNK         0.3141 
     92 H92       -71.3581   26.6911  -76.3864 H         1 UNK         0.0743 
     93 H93       -71.6211   26.5842  -73.8929 H         1 UNK         0.0784 
     94 H94       -72.3778   25.1968  -74.6524 H         1 UNK         0.0784 
     95 H95       -73.3669   26.5367  -74.0648 H         1 UNK         0.0784 
     96 H96       -74.1732   26.0466  -76.3400 H         1 UNK         0.3213 
     97 H97       -75.5287   27.0123  -78.5005 H         1 UNK         0.0855 
     98 H98       -73.9361   25.6045  -80.7064 H         1 UNK         0.0814 
     99 H99       -74.4777   27.2743  -80.7071 H         1 UNK         0.0814 
    100 H100      -75.6587   25.9774  -80.7770 H         1 UNK         0.0814 
    101 H101      -76.1304   25.0529  -77.7245 H         1 UNK         0.3105 
    102 H102      -76.3089   22.4089  -78.4516 H         1 UNK         0.0547 
    103 H103      -75.2135   20.4774  -77.2998 H         1 UNK         0.0837 
    104 H104      -73.7370   21.4234  -77.1124 H         1 UNK         0.0837 
    105 H105      -74.3128   20.9942  -78.7147 H         1 UNK         0.0837 
    106 H106      -77.0718   22.8670  -76.4471 H         1 UNK         0.3020 
    107 H107      -75.9829   22.6397  -73.3834 H         1 UNK         0.1245 
    108 H108      -76.1807   25.6396  -73.9735 H         1 UNK         0.0781 
    109 H109      -74.8199   24.8484  -73.2072 H         1 UNK         0.0781 
    110 H110      -74.7810   26.3333  -71.2719 H         1 UNK         0.0836 
    111 H111      -75.9048   26.3171  -69.9411 H         1 UNK         0.0836 
    112 H112      -78.2039   24.2259  -74.4083 H         1 UNK         0.3022 
    113 H113      -80.1160   21.4195  -75.4034 H         1 UNK         0.0747 
    114 H114      -81.8407   22.3681  -73.9426 H         1 UNK         0.0793 
    115 H115      -80.6173   21.6058  -72.9483 H         1 UNK         0.0793 
    116 H116      -80.6523   23.3561  -73.0876 H         1 UNK         0.0793 
    117 H117      -80.5027   24.2999  -75.3600 H         1 UNK         0.3047 
    118 H118      -78.9827   24.8937  -78.5370 H         1 UNK         0.0822 
    119 H119      -81.2177   25.8613  -79.0507 H         1 UNK         0.0807 
    120 H120      -81.9497   24.9030  -77.7643 H         1 UNK         0.0807 
    121 H121      -81.2498   24.1097  -79.1660 H         1 UNK         0.0807 
    122 H122      -80.4021   26.5486  -76.6480 H         1 UNK         0.2946 
    123 H123      -77.6112   27.4125  -74.6554 H         1 UNK         0.1144 
    124 H124      -78.0649   29.7402  -75.4927 H         1 UNK         0.0793 
    125 H125      -78.7807   29.0720  -76.9564 H         1 UNK         0.0793 
    126 H126      -77.0734   28.8184  -76.6127 H         1 UNK         0.0793 
    127 H127      -80.1251   28.6453  -74.7900 H         1 UNK         0.2896 
@<TRIPOS>BOND
     1    1    2 1    
     2    1   67 1    
     3    1   68 1    
     4    1   69 1    
     5    2    3 2    
     6    2    4 am   BACKBONE|DICT|INTERRES
     7    4    5 1    
     8    4   70 1    
     9    5    6 1    
    10    5   65 1    
    11    5   71 1    
    12    6    7 1    
    13    6   72 1    
    14    6   73 1    
    15    7    8 1    
    16    8    9 1    
    17    8   74 1    
    18    8   75 1    
    19    9   10 ar   
    20    9   14 ar   
    21   10   11 ar   
    22   10   76 1    
    23   11   12 ar   
    24   11   48 1    
    25   12   13 ar   
    26   12   77 1    
    27   13   14 ar   
    28   13   15 1    
    29   14   78 1    
    30   15   16 1    
    31   15   79 1    
    32   15   80 1    
    33   16   17 1    
    34   17   18 1    
    35   17   81 1    
    36   17   82 1    
    37   18   19 1    
    38   18   22 1    
    39   18   83 1    
    40   19   20 am   BACKBONE|DICT|INTERRES
    41   19   21 2    
    42   20   84 1    
    43   20   85 1    
    44   22   23 am   BACKBONE|DICT|INTERRES
    45   22   86 1    
    46   23   24 2    
    47   23   25 1    
    48   25   26 1    
    49   25   27 1    
    50   25   87 1    
    51   26   88 1    
    52   26   89 1    
    53   26   90 1    
    54   27   28 am   BACKBONE|DICT|INTERRES
    55   27   91 1    
    56   28   29 2    
    57   28   30 1    
    58   30   31 1    
    59   30   32 1    
    60   30   92 1    
    61   31   93 1    
    62   31   94 1    
    63   31   95 1    
    64   32   33 am   BACKBONE|DICT|INTERRES
    65   32   96 1    
    66   33   34 2    
    67   33   35 1    
    68   35   36 1    
    69   35   37 1    
    70   35   97 1    
    71   36   98 1    
    72   36   99 1    
    73   36  100 1    
    74   37   38 am   BACKBONE|DICT|INTERRES
    75   37  101 1    
    76   38   39 2    
    77   38   40 1    
    78   40   41 1    
    79   40   42 1    
    80   40  102 1    
    81   41  103 1    
    82   41  104 1    
    83   41  105 1    
    84   42   43 am   BACKBONE|DICT|INTERRES
    85   42  106 1    
    86   43   44 2    
    87   43   45 1    
    88   45   46 1    
    89   45   49 1    
    90   45  107 1    
    91   46   47 1    
    92   46  108 1    
    93   46  109 1    
    94   47   48 1    
    95   48  110 1    
    96   48  111 1    
    97   49   50 am   BACKBONE|DICT|INTERRES
    98   49  112 1    
    99   50   51 2    
   100   50   52 1    
   101   52   53 1    
   102   52   54 1    
   103   52  113 1    
   104   53  114 1    
   105   53  115 1    
   106   53  116 1    
   107   54   55 am   BACKBONE|DICT|INTERRES
   108   54  117 1    
   109   55   56 2    
   110   55   57 1    
   111   57   58 1    
   112   57   59 1    
   113   57  118 1    
   114   58  119 1    
   115   58  120 1    
   116   58  121 1    
   117   59   60 am   BACKBONE|DICT|INTERRES
   118   59  122 1    
   119   60   61 2    
   120   60   62 1    
   121   62   63 1    
   122   62   64 1    
   123   62  123 1    
   124   63  124 1    
   125   63  125 1    
   126   63  126 1    
   127   64   65 am   BACKBONE|DICT|INTERRES
   128   64  127 1    
   129   65   66 2    
@<TRIPOS>SUBSTRUCTURE
     1 UNK         1 GROUP             0       ****    0 ROOT    
