@<TRIPOS>MOLECULE
3R135
127   129    1
SMALL
USER_CHARGES


@<TRIPOS>ATOM
      1 CA        -83.8692   25.7568  -75.9023 C.3       0 UNK        -0.1998 
      2 C         -82.6976   26.6508  -75.5280 C.2       0 UNK         0.4909 
      3 O         -81.9764   27.1151  -76.4113 O.2       0 UNK        -0.5240 
      4 N         -82.4987   26.8958  -74.2256 N.am      1 UNK        -0.4739 
      5 CA        -81.4470   27.7689  -73.6922 C.3       1 UNK         0.0864 
      6 C6        -81.6170   28.0088  -72.1719 C.3       11 UNK        -0.0881 
      7 S7        -80.9791   29.6430  -71.6718 S.3       11 UNK        -0.2682 
      8 C8        -79.9603   29.2325  -70.2207 C.3       11 UNK         0.0289 
      9 C9        -78.6171   28.6258  -70.6021 C.ar      11 UNK        -0.0687 
     10 C10       -78.3580   27.2722  -70.3694 C.ar      11 UNK        -0.0823 
     11 C11       -77.1054   26.7234  -70.6626 C.ar      11 UNK        -0.0830 
     12 C12       -76.1104   27.5494  -71.2015 C.ar      11 UNK        -0.1021 
     13 C13       -76.3553   28.9059  -71.4451 C.ar      11 UNK        -0.0753 
     14 C14       -77.6140   29.4342  -71.1438 C.ar      11 UNK        -0.0933 
     15 C15       -75.2795   29.8103  -72.0404 C.3       11 UNK         0.0166 
     16 S16       -73.6560   29.6134  -71.2353 S.3       11 UNK        -0.2615 
     17 C17       -73.0388   31.3305  -71.1981 C.3       11 UNK        -0.0865 
     18 CA        -72.8082   31.9838  -72.5887 C.3       10 UNK         0.0862 
     19 C         -72.2482   33.4259  -72.4020 C.2       10 UNK         0.5551 
     20 N         -70.9866   33.6945  -72.7157 N.am      10 UNK        -0.7319 
     21 O         -72.9747   34.3123  -71.9597 O.2       10 UNK        -0.5018 
     22 N         -72.0384   31.1117  -73.4941 N.am      10 UNK        -0.4509 
     23 C         -71.8428   31.3379  -74.8009 C.2       10 UNK         0.4899 
     24 O         -72.2748   32.3186  -75.4070 O.2       10 UNK        -0.4839 
     25 CA        -71.0335   30.2780  -75.5656 C.3       9 UNK         0.0222 
     26 CB        -69.5330   30.4042  -75.2524 C.3       9 UNK        -0.1966 
     27 N         -71.4852   28.9095  -75.2965 N.am      9 UNK        -0.4218 
     28 C         -72.6651   28.4119  -75.6918 C.2       9 UNK         0.5020 
     29 O         -73.5168   29.0616  -76.3031 O.2       9 UNK        -0.5274 
     30 CA        -72.9404   26.9422  -75.3287 C.3       8 UNK         0.0270 
     31 CB        -73.6048   26.8397  -73.9485 C.3       8 UNK        -0.1976 
     32 N         -73.7898   26.2855  -76.3251 N.am      8 UNK        -0.4313 
     33 C         -73.4029   25.9901  -77.5721 C.2       8 UNK         0.5041 
     34 O         -72.2574   26.1638  -77.9964 O.2       8 UNK        -0.5577 
     35 CA        -74.4870   25.3826  -78.4805 C.3       7 UNK         0.0284 
     36 CB        -74.0064   25.1405  -79.9276 C.3       7 UNK        -0.1958 
     37 N         -75.0645   24.1611  -77.9070 N.am      7 UNK        -0.4454 
     38 C         -74.4343   23.0116  -77.6219 C.2       7 UNK         0.5089 
     39 O         -73.2351   22.8050  -77.8161 O.2       7 UNK        -0.5125 
     40 CA        -75.3240   21.9008  -77.0378 C.3       6 UNK         0.0408 
     41 CB        -74.5424   20.6396  -76.6097 C.3       6 UNK        -0.1791 
     42 N         -76.1951   22.3953  -75.9665 N.am      6 UNK        -0.4762 
     43 C         -75.8500   22.7960  -74.7311 C.2       6 UNK         0.5007 
     44 O         -74.6902   22.7751  -74.3189 O.2       6 UNK        -0.5032 
     45 CA        -76.9770   23.3112  -73.7939 C.3       5 UNK         0.0783 
     46 C46       -76.5888   24.6380  -73.0939 C.3       11 UNK        -0.0857 
     47 S47       -75.7158   24.4054  -71.5124 S.3       11 UNK        -0.2512 
     48 C48       -76.8482   25.2469  -70.3517 C.3       11 UNK         0.0225 
     49 N         -78.2649   23.4730  -74.4728 N.am      5 UNK        -0.4615 
     50 C         -79.1010   22.5056  -74.8633 C.2       4 UNK         0.5053 
     51 O         -78.9439   21.3144  -74.6000 O.2       4 UNK        -0.5105 
     52 CA        -80.2727   22.9444  -75.7604 C.3       4 UNK         0.0263 
     53 CB        -81.5553   23.1065  -74.9309 C.3       4 UNK        -0.1981 
     54 N         -79.9925   24.1840  -76.5019 N.am      4 UNK        -0.4224 
     55 C         -79.0631   24.3015  -77.4645 C.2       3 UNK         0.4895 
     56 O         -78.3785   23.3641  -77.8744 O.2       3 UNK        -0.5091 
     57 CA        -78.7990   25.7131  -78.0099 C.3       3 UNK         0.0250 
     58 CB        -79.8727   26.1209  -79.0306 C.3       3 UNK        -0.1996 
     59 N         -78.7136   26.7073  -76.9370 N.am      3 UNK        -0.4254 
     60 C         -77.6870   26.8008  -76.0765 C.2       2 UNK         0.5004 
     61 O         -76.6804   26.0941  -76.1367 O.2       2 UNK        -0.5226 
     62 CA        -77.7990   27.8354  -74.9413 C.3       2 UNK         0.0269 
     63 CB        -77.1023   29.1427  -75.3438 C.3       2 UNK        -0.1926 
     64 N         -79.1729   28.1345  -74.5306 N.am      2 UNK        -0.4687 
     65 C         -80.0396   27.2411  -74.0358 C.2       1 UNK         0.5165 
     66 O         -79.7783   26.0464  -73.8769 O.2       1 UNK        -0.5079 
     67 H67       -84.2154   25.1661  -75.0544 H         1 UNK         0.0900 
     68 H68       -83.5830   25.0720  -76.7000 H         1 UNK         0.0900 
     69 H69       -84.7005   26.3631  -76.2605 H         1 UNK         0.0900 
     70 H70       -83.1015   26.4621  -73.5412 H         1 UNK         0.2959 
     71 H71       -81.5821   28.7239  -74.2058 H         1 UNK         0.1079 
     72 H72       -82.6746   27.9992  -71.9035 H         1 UNK         0.0837 
     73 H73       -81.1574   27.2106  -71.5853 H         1 UNK         0.0837 
     74 H74       -79.7849   30.1464  -69.6511 H         1 UNK         0.0685 
     75 H75       -80.5186   28.5685  -69.5588 H         1 UNK         0.0685 
     76 H76       -79.1295   26.6474  -69.9402 H         1 UNK         0.1434 
     77 H77       -75.1350   27.1405  -71.4230 H         1 UNK         0.1329 
     78 H78       -77.8172   30.4814  -71.3222 H         1 UNK         0.1335 
     79 H79       -75.1688   29.5917  -73.1025 H         1 UNK         0.0680 
     80 H80       -75.5918   30.8531  -71.9697 H         1 UNK         0.0680 
     81 H81       -72.1065   31.3246  -70.6299 H         1 UNK         0.1032 
     82 H82       -73.7389   31.9274  -70.6097 H         1 UNK         0.1032 
     83 H83       -73.7860   32.1093  -73.0569 H         1 UNK         0.0461 
     84 H84       -70.3871   32.9718  -73.0795 H         1 UNK         0.3453 
     85 H85       -70.6341   34.6306  -72.5924 H         1 UNK         0.3453 
     86 H86       -71.6606   30.2721  -73.0814 H         1 UNK         0.2984 
     87 H87       -71.1676   30.4676  -76.6329 H         1 UNK         0.0554 
     88 H88       -68.9417   29.7240  -75.8659 H         1 UNK         0.0847 
     89 H89       -69.3130   30.1886  -74.2061 H         1 UNK         0.0847 
     90 H90       -69.1757   31.4141  -75.4590 H         1 UNK         0.0847 
     91 H91       -70.8464   28.3078  -74.7962 H         1 UNK         0.3141 
     92 H92       -71.9883   26.4082  -75.2945 H         1 UNK         0.0743 
     93 H93       -74.5939   27.2986  -73.9431 H         1 UNK         0.0784 
     94 H94       -73.7082   25.7994  -73.6399 H         1 UNK         0.0784 
     95 H95       -73.0075   27.3396  -73.1855 H         1 UNK         0.0784 
     96 H96       -74.7717   26.1563  -76.0923 H         1 UNK         0.3213 
     97 H97       -75.2933   26.1164  -78.5261 H         1 UNK         0.0855 
     98 H98       -73.6643   26.0705  -80.3830 H         1 UNK         0.0814 
     99 H99       -74.8096   24.7499  -80.5522 H         1 UNK         0.0814 
    100 H100      -73.1753   24.4358  -79.9694 H         1 UNK         0.0814 
    101 H101      -76.0398   24.2254  -77.6447 H         1 UNK         0.3105 
    102 H102      -75.9935   21.6007  -77.8453 H         1 UNK         0.0547 
    103 H103      -74.0244   20.1981  -77.4618 H         1 UNK         0.0837 
    104 H104      -73.7866   20.8613  -75.8560 H         1 UNK         0.0837 
    105 H105      -75.2080   19.8773  -76.2054 H         1 UNK         0.0837 
    106 H106      -77.1681   22.4923  -76.2301 H         1 UNK         0.3020 
    107 H107      -77.1170   22.5404  -73.0327 H         1 UNK         0.1245 
    108 H108      -77.4839   25.2253  -72.8893 H         1 UNK         0.0781 
    109 H109      -75.9829   25.2689  -73.7424 H         1 UNK         0.0781 
    110 H110      -76.4327   25.1728  -69.3461 H         1 UNK         0.0836 
    111 H111      -77.7895   24.6949  -70.3379 H         1 UNK         0.0836 
    112 H112      -78.5343   24.4270  -74.6786 H         1 UNK         0.3022 
    113 H113      -80.4370   22.1476  -76.4890 H         1 UNK         0.0747 
    114 H114      -82.4206   23.2660  -75.5723 H         1 UNK         0.0793 
    115 H115      -81.7567   22.2091  -74.3441 H         1 UNK         0.0793 
    116 H116      -81.4857   23.9414  -74.2328 H         1 UNK         0.0793 
    117 H117      -80.4758   25.0185  -76.1985 H         1 UNK         0.3047 
    118 H118      -77.8388   25.6944  -78.5299 H         1 UNK         0.0822 
    119 H119      -79.6694   27.1075  -79.4472 H         1 UNK         0.0807 
    120 H120      -80.8700   26.1418  -78.5913 H         1 UNK         0.0807 
    121 H121      -79.9014   25.4180  -79.8643 H         1 UNK         0.0807 
    122 H122      -79.5169   27.3076  -76.8026 H         1 UNK         0.2946 
    123 H123      -77.2817   27.4251  -74.0718 H         1 UNK         0.1144 
    124 H124      -76.0541   28.9646  -75.5845 H         1 UNK         0.0793 
    125 H125      -77.1294   29.8742  -74.5363 H         1 UNK         0.0793 
    126 H126      -77.5655   29.5951  -76.2214 H         1 UNK         0.0793 
    127 H127      -79.4684   29.0959  -74.6225 H         1 UNK         0.2896 
@<TRIPOS>BOND
     1    1    2 1    
     2    1   67 1    
     3    1   68 1    
     4    1   69 1    
     5    2    3 2    
     6    2    4 am   BACKBONE|DICT|INTERRES
     7    4    5 1    
     8    4   70 1    
     9    5    6 1    
    10    5   65 1    
    11    5   71 1    
    12    6    7 1    
    13    6   72 1    
    14    6   73 1    
    15    7    8 1    
    16    8    9 1    
    17    8   74 1    
    18    8   75 1    
    19    9   10 ar   
    20    9   14 ar   
    21   10   11 ar   
    22   10   76 1    
    23   11   12 ar   
    24   11   48 1    
    25   12   13 ar   
    26   12   77 1    
    27   13   14 ar   
    28   13   15 1    
    29   14   78 1    
    30   15   16 1    
    31   15   79 1    
    32   15   80 1    
    33   16   17 1    
    34   17   18 1    
    35   17   81 1    
    36   17   82 1    
    37   18   19 1    
    38   18   22 1    
    39   18   83 1    
    40   19   20 am   BACKBONE|DICT|INTERRES
    41   19   21 2    
    42   20   84 1    
    43   20   85 1    
    44   22   23 am   BACKBONE|DICT|INTERRES
    45   22   86 1    
    46   23   24 2    
    47   23   25 1    
    48   25   26 1    
    49   25   27 1    
    50   25   87 1    
    51   26   88 1    
    52   26   89 1    
    53   26   90 1    
    54   27   28 am   BACKBONE|DICT|INTERRES
    55   27   91 1    
    56   28   29 2    
    57   28   30 1    
    58   30   31 1    
    59   30   32 1    
    60   30   92 1    
    61   31   93 1    
    62   31   94 1    
    63   31   95 1    
    64   32   33 am   BACKBONE|DICT|INTERRES
    65   32   96 1    
    66   33   34 2    
    67   33   35 1    
    68   35   36 1    
    69   35   37 1    
    70   35   97 1    
    71   36   98 1    
    72   36   99 1    
    73   36  100 1    
    74   37   38 am   BACKBONE|DICT|INTERRES
    75   37  101 1    
    76   38   39 2    
    77   38   40 1    
    78   40   41 1    
    79   40   42 1    
    80   40  102 1    
    81   41  103 1    
    82   41  104 1    
    83   41  105 1    
    84   42   43 am   BACKBONE|DICT|INTERRES
    85   42  106 1    
    86   43   44 2    
    87   43   45 1    
    88   45   46 1    
    89   45   49 1    
    90   45  107 1    
    91   46   47 1    
    92   46  108 1    
    93   46  109 1    
    94   47   48 1    
    95   48  110 1    
    96   48  111 1    
    97   49   50 am   BACKBONE|DICT|INTERRES
    98   49  112 1    
    99   50   51 2    
   100   50   52 1    
   101   52   53 1    
   102   52   54 1    
   103   52  113 1    
   104   53  114 1    
   105   53  115 1    
   106   53  116 1    
   107   54   55 am   BACKBONE|DICT|INTERRES
   108   54  117 1    
   109   55   56 2    
   110   55   57 1    
   111   57   58 1    
   112   57   59 1    
   113   57  118 1    
   114   58  119 1    
   115   58  120 1    
   116   58  121 1    
   117   59   60 am   BACKBONE|DICT|INTERRES
   118   59  122 1    
   119   60   61 2    
   120   60   62 1    
   121   62   63 1    
   122   62   64 1    
   123   62  123 1    
   124   63  124 1    
   125   63  125 1    
   126   63  126 1    
   127   64   65 am   BACKBONE|DICT|INTERRES
   128   64  127 1    
   129   65   66 2    
@<TRIPOS>SUBSTRUCTURE
     1 UNK         1 GROUP             0       ****    0 ROOT    
