@<TRIPOS>MOLECULE
3R135
127   129    1
SMALL
USER_CHARGES


@<TRIPOS>ATOM
      1 CA        -78.3373   30.3238  -76.0457 C.3       0 UNK        -0.1998 
      2 C         -79.3754   29.5164  -75.2810 C.2       0 UNK         0.4909 
      3 O         -80.5620   29.5952  -75.5998 O.2       0 UNK        -0.5240 
      4 N         -78.9375   28.7299  -74.2880 N.am      1 UNK        -0.4739 
      5 CA        -79.7374   27.8760  -73.3944 C.3       1 UNK         0.0864 
      6 C6        -80.8113   28.6663  -72.5959 C.3       11 UNK        -0.0881 
      7 S7        -81.3046   27.8345  -71.0472 S.3       11 UNK        -0.2682 
      8 C8        -80.2276   28.6492  -69.8242 C.3       11 UNK         0.0289 
      9 C9        -78.7571   28.3687  -70.0960 C.ar      11 UNK        -0.0687 
     10 C10       -78.2195   27.1083  -69.8198 C.ar      11 UNK        -0.0823 
     11 C11       -76.8777   26.8313  -70.0994 C.ar      11 UNK        -0.0830 
     12 C12       -76.0683   27.8330  -70.6461 C.ar      11 UNK        -0.1021 
     13 C13       -76.5969   29.0952  -70.9284 C.ar      11 UNK        -0.0753 
     14 C14       -77.9400   29.3595  -70.6476 C.ar      11 UNK        -0.0933 
     15 C15       -75.7227   30.1761  -71.5393 C.3       11 UNK         0.0166 
     16 S16       -75.6968   30.0474  -73.3542 S.3       11 UNK        -0.2615 
     17 C17       -75.1752   31.7399  -73.8133 C.3       11 UNK        -0.0865 
     18 CA        -73.6635   31.9021  -74.1228 C.3       10 UNK         0.0862 
     19 C         -72.7773   31.7941  -72.8497 C.2       10 UNK         0.5551 
     20 N         -72.7553   32.8343  -72.0271 N.am      10 UNK        -0.7319 
     21 O         -72.1417   30.7769  -72.5812 O.2       10 UNK        -0.5018 
     22 N         -73.2392   31.0072  -75.2054 N.am      10 UNK        -0.4509 
     23 C         -72.1448   31.1793  -75.9562 C.2       10 UNK         0.4899 
     24 O         -71.4005   32.1585  -75.8748 O.2       10 UNK        -0.4839 
     25 CA        -71.8573   30.0652  -76.9785 C.3       9 UNK         0.0222 
     26 CB        -70.5339   30.2621  -77.7493 C.3       9 UNK        -0.1966 
     27 N         -71.9330   28.7320  -76.3715 N.am      9 UNK        -0.4218 
     28 C         -71.1381   28.2209  -75.4146 C.2       9 UNK         0.5020 
     29 O         -70.1686   28.8116  -74.9369 O.2       9 UNK        -0.5274 
     30 CA        -71.4686   26.8082  -74.8881 C.3       8 UNK         0.0270 
     31 CB        -72.0713   26.9001  -73.4754 C.3       8 UNK        -0.1976 
     32 N         -72.3830   26.0551  -75.7521 N.am      8 UNK        -0.4313 
     33 C         -72.0764   25.5967  -76.9769 C.2       8 UNK         0.5041 
     34 O         -70.9399   25.6380  -77.4495 O.2       8 UNK        -0.5577 
     35 CA        -73.2207   25.0323  -77.8462 C.3       7 UNK         0.0284 
     36 CB        -73.1571   23.4967  -77.8852 C.3       7 UNK        -0.1958 
     37 N         -74.5642   25.4408  -77.4244 N.am      7 UNK        -0.4454 
     38 C         -75.0136   26.6993  -77.3118 C.2       7 UNK         0.5089 
     39 O         -74.3663   27.6905  -77.6505 O.2       7 UNK        -0.5125 
     40 CA        -76.3809   26.8888  -76.6277 C.3       6 UNK         0.0408 
     41 CB        -77.4689   27.1378  -77.6831 C.3       6 UNK        -0.1791 
     42 N         -76.7818   25.7802  -75.7433 N.am      6 UNK        -0.4762 
     43 C         -76.0784   25.3595  -74.6785 C.2       6 UNK         0.5007 
     44 O         -74.9996   25.8656  -74.3694 O.2       6 UNK        -0.5032 
     45 CA        -76.5863   24.1594  -73.8526 C.3       5 UNK         0.0783 
     46 C46       -77.0073   24.5657  -72.4139 C.3       11 UNK        -0.0857 
     47 S47       -75.5781   24.6604  -71.2815 S.3       11 UNK        -0.2512 
     48 C48       -76.3094   25.4477  -69.8099 C.3       11 UNK         0.0225 
     49 N         -77.6160   23.3455  -74.5180 N.am      5 UNK        -0.4615 
     50 C         -77.6851   22.0117  -74.3650 C.2       4 UNK         0.5053 
     51 O         -76.8255   21.3546  -73.7761 O.2       4 UNK        -0.5105 
     52 CA        -78.9140   21.2549  -74.9044 C.3       4 UNK         0.0263 
     53 CB        -79.9096   20.9885  -73.7630 C.3       4 UNK        -0.1981 
     54 N         -79.6155   21.9388  -75.9852 N.am      4 UNK        -0.4224 
     55 C         -79.1906   22.0285  -77.2520 C.2       3 UNK         0.4895 
     56 O         -78.1714   21.4812  -77.6737 O.2       3 UNK        -0.5091 
     57 CA        -80.0407   22.8888  -78.2121 C.3       3 UNK         0.0250 
     58 CB        -80.8972   21.9906  -79.1196 C.3       3 UNK        -0.1996 
     59 N         -80.9107   23.8787  -77.5553 N.am      3 UNK        -0.4254 
     60 C         -80.4801   24.8391  -76.7255 C.2       2 UNK         0.5004 
     61 O         -79.2945   24.9566  -76.4139 O.2       2 UNK        -0.5226 
     62 CA        -81.5393   25.7946  -76.1418 C.3       2 UNK         0.0269 
     63 CB        -82.6770   25.0289  -75.4315 C.3       2 UNK        -0.1926 
     64 N         -80.9632   26.8079  -75.2446 N.am      2 UNK        -0.4687 
     65 C         -80.3198   26.6211  -74.0816 C.2       1 UNK         0.5165 
     66 O         -80.1553   25.5192  -73.5547 O.2       1 UNK        -0.5079 
     67 H67       -77.3236   29.9800  -75.8471 H         1 UNK         0.0900 
     68 H68       -78.4023   31.3752  -75.7678 H         1 UNK         0.0900 
     69 H69       -78.5129   30.2429  -77.1181 H         1 UNK         0.0900 
     70 H70       -77.9452   28.7184  -74.0909 H         1 UNK         0.2959 
     71 H71       -79.0062   27.4975  -72.6801 H         1 UNK         0.1079 
     72 H72       -81.7032   28.8360  -73.2018 H         1 UNK         0.0837 
     73 H73       -80.4375   29.6602  -72.3460 H         1 UNK         0.0837 
     74 H74       -80.4272   29.7220  -69.8218 H         1 UNK         0.0685 
     75 H75       -80.4867   28.2879  -68.8280 H         1 UNK         0.0685 
     76 H76       -78.8560   26.3396  -69.4029 H         1 UNK         0.1434 
     77 H77       -75.0310   27.6233  -70.8706 H         1 UNK         0.1329 
     78 H78       -78.3524   30.3335  -70.8731 H         1 UNK         0.1335 
     79 H79       -74.7040   30.0981  -71.1564 H         1 UNK         0.0680 
     80 H80       -76.0920   31.1569  -71.2365 H         1 UNK         0.0680 
     81 H81       -75.7461   32.0213  -74.6994 H         1 UNK         0.1032 
     82 H82       -75.4879   32.4505  -73.0465 H         1 UNK         0.1032 
     83 H83       -73.5329   32.9198  -74.4972 H         1 UNK         0.0461 
     84 H84       -73.2706   33.6762  -72.2319 H         1 UNK         0.3453 
     85 H85       -72.1965   32.7822  -71.1898 H         1 UNK         0.3453 
     86 H86       -73.7698   30.1541  -75.3003 H         1 UNK         0.2984 
     87 H87       -72.6662   30.1075  -77.7094 H         1 UNK         0.0554 
     88 H88       -70.3714   29.4602  -78.4694 H         1 UNK         0.0847 
     89 H89       -69.6723   30.2935  -77.0819 H         1 UNK         0.0847 
     90 H90       -70.5445   31.2000  -78.3058 H         1 UNK         0.0847 
     91 H91       -72.7088   28.1641  -76.7013 H         1 UNK         0.3141 
     92 H92       -70.5303   26.2533  -74.8258 H         1 UNK         0.0743 
     93 H93       -72.2932   25.9131  -73.0690 H         1 UNK         0.0784 
     94 H94       -71.3801   27.3881  -72.7868 H         1 UNK         0.0784 
     95 H95       -72.9954   27.4806  -73.4686 H         1 UNK         0.0784 
     96 H96       -73.3378   25.9615  -75.4135 H         1 UNK         0.3213 
     97 H97       -73.0688   25.4105  -78.8593 H         1 UNK         0.0855 
     98 H98       -72.1792   23.1550  -78.2279 H         1 UNK         0.0814 
     99 H99       -73.8989   23.0842  -78.5694 H         1 UNK         0.0814 
    100 H100      -73.3271   23.0605  -76.8999 H         1 UNK         0.0814 
    101 H101      -75.1815   24.7055  -77.1119 H         1 UNK         0.3105 
    102 H102      -76.3012   27.7809  -76.0042 H         1 UNK         0.0547 
    103 H103      -77.2017   27.9714  -78.3341 H         1 UNK         0.0837 
    104 H104      -77.6218   26.2632  -78.3166 H         1 UNK         0.0837 
    105 H105      -78.4237   27.3844  -77.2203 H         1 UNK         0.0837 
    106 H106      -77.6838   25.3544  -75.9597 H         1 UNK         0.3020 
    107 H107      -75.6952   23.5323  -73.7695 H         1 UNK         0.1245 
    108 H108      -77.6959   23.8320  -71.9918 H         1 UNK         0.0781 
    109 H109      -77.5513   25.5112  -72.4187 H         1 UNK         0.0781 
    110 H110      -75.5418   25.5362  -69.0400 H         1 UNK         0.0836 
    111 H111      -77.0764   24.7862  -69.4041 H         1 UNK         0.0836 
    112 H112      -78.3494   23.8375  -75.0186 H         1 UNK         0.3022 
    113 H113      -78.5640   20.2916  -75.2820 H         1 UNK         0.0747 
    114 H114      -80.7519   20.3852  -74.1020 H         1 UNK         0.0793 
    115 H115      -79.4322   20.4444  -72.9466 H         1 UNK         0.0793 
    116 H116      -80.3047   21.9171  -73.3478 H         1 UNK         0.0793 
    117 H117      -80.4599   22.4320  -75.7362 H         1 UNK         0.3047 
    118 H118      -79.3403   23.4421  -78.8413 H         1 UNK         0.0822 
    119 H119      -81.6417   21.4338  -78.5491 H         1 UNK         0.0807 
    120 H120      -80.2784   21.2621  -79.6457 H         1 UNK         0.0807 
    121 H121      -81.4201   22.5738  -79.8780 H         1 UNK         0.0807 
    122 H122      -81.8952   23.8283  -77.7752 H         1 UNK         0.2946 
    123 H123      -81.9653   26.3417  -76.9844 H         1 UNK         0.1144 
    124 H124      -83.2410   24.4102  -76.1300 H         1 UNK         0.0793 
    125 H125      -82.2996   24.3716  -74.6473 H         1 UNK         0.0793 
    126 H126      -83.3880   25.7165  -74.9734 H         1 UNK         0.0793 
    127 H127      -80.9971   27.7682  -75.5793 H         1 UNK         0.2896 
@<TRIPOS>BOND
     1    1    2 1    
     2    1   67 1    
     3    1   68 1    
     4    1   69 1    
     5    2    3 2    
     6    2    4 am   BACKBONE|DICT|INTERRES
     7    4    5 1    
     8    4   70 1    
     9    5    6 1    
    10    5   65 1    
    11    5   71 1    
    12    6    7 1    
    13    6   72 1    
    14    6   73 1    
    15    7    8 1    
    16    8    9 1    
    17    8   74 1    
    18    8   75 1    
    19    9   10 ar   
    20    9   14 ar   
    21   10   11 ar   
    22   10   76 1    
    23   11   12 ar   
    24   11   48 1    
    25   12   13 ar   
    26   12   77 1    
    27   13   14 ar   
    28   13   15 1    
    29   14   78 1    
    30   15   16 1    
    31   15   79 1    
    32   15   80 1    
    33   16   17 1    
    34   17   18 1    
    35   17   81 1    
    36   17   82 1    
    37   18   19 1    
    38   18   22 1    
    39   18   83 1    
    40   19   20 am   BACKBONE|DICT|INTERRES
    41   19   21 2    
    42   20   84 1    
    43   20   85 1    
    44   22   23 am   BACKBONE|DICT|INTERRES
    45   22   86 1    
    46   23   24 2    
    47   23   25 1    
    48   25   26 1    
    49   25   27 1    
    50   25   87 1    
    51   26   88 1    
    52   26   89 1    
    53   26   90 1    
    54   27   28 am   BACKBONE|DICT|INTERRES
    55   27   91 1    
    56   28   29 2    
    57   28   30 1    
    58   30   31 1    
    59   30   32 1    
    60   30   92 1    
    61   31   93 1    
    62   31   94 1    
    63   31   95 1    
    64   32   33 am   BACKBONE|DICT|INTERRES
    65   32   96 1    
    66   33   34 2    
    67   33   35 1    
    68   35   36 1    
    69   35   37 1    
    70   35   97 1    
    71   36   98 1    
    72   36   99 1    
    73   36  100 1    
    74   37   38 am   BACKBONE|DICT|INTERRES
    75   37  101 1    
    76   38   39 2    
    77   38   40 1    
    78   40   41 1    
    79   40   42 1    
    80   40  102 1    
    81   41  103 1    
    82   41  104 1    
    83   41  105 1    
    84   42   43 am   BACKBONE|DICT|INTERRES
    85   42  106 1    
    86   43   44 2    
    87   43   45 1    
    88   45   46 1    
    89   45   49 1    
    90   45  107 1    
    91   46   47 1    
    92   46  108 1    
    93   46  109 1    
    94   47   48 1    
    95   48  110 1    
    96   48  111 1    
    97   49   50 am   BACKBONE|DICT|INTERRES
    98   49  112 1    
    99   50   51 2    
   100   50   52 1    
   101   52   53 1    
   102   52   54 1    
   103   52  113 1    
   104   53  114 1    
   105   53  115 1    
   106   53  116 1    
   107   54   55 am   BACKBONE|DICT|INTERRES
   108   54  117 1    
   109   55   56 2    
   110   55   57 1    
   111   57   58 1    
   112   57   59 1    
   113   57  118 1    
   114   58  119 1    
   115   58  120 1    
   116   58  121 1    
   117   59   60 am   BACKBONE|DICT|INTERRES
   118   59  122 1    
   119   60   61 2    
   120   60   62 1    
   121   62   63 1    
   122   62   64 1    
   123   62  123 1    
   124   63  124 1    
   125   63  125 1    
   126   63  126 1    
   127   64   65 am   BACKBONE|DICT|INTERRES
   128   64  127 1    
   129   65   66 2    
@<TRIPOS>SUBSTRUCTURE
     1 UNK         1 GROUP             0       ****    0 ROOT    
