@<TRIPOS>MOLECULE
3R135
127   129    1
SMALL
USER_CHARGES


@<TRIPOS>ATOM
      1 CA        -83.9344   29.2096  -74.6680 C.3       0 UNK        -0.1998 
      2 C         -82.6323   28.5832  -74.1931 C.2       0 UNK         0.4909 
      3 O         -81.5597   29.0768  -74.5313 O.2       0 UNK        -0.5240 
      4 N         -82.7205   27.4948  -73.4190 N.am      1 UNK        -0.4739 
      5 CA        -81.5839   26.7513  -72.8547 C.3       1 UNK         0.0864 
      6 C6        -81.8961   26.3341  -71.3921 C.3       11 UNK        -0.0881 
      7 S7        -80.4250   26.1562  -70.3262 S.3       11 UNK        -0.2682 
      8 C8        -80.1075   27.8696  -69.7916 C.3       11 UNK         0.0289 
      9 C9        -79.0227   28.5229  -70.6358 C.ar      11 UNK        -0.0687 
     10 C10       -79.3479   29.4468  -71.6333 C.ar      11 UNK        -0.0823 
     11 C11       -78.3469   30.0357  -72.4143 C.ar      11 UNK        -0.0830 
     12 C12       -77.0087   29.6995  -72.1784 C.ar      11 UNK        -0.1021 
     13 C13       -76.6714   28.7750  -71.1846 C.ar      11 UNK        -0.0753 
     14 C14       -77.6823   28.1976  -70.4125 C.ar      11 UNK        -0.0933 
     15 C15       -75.2246   28.3522  -70.9822 C.3       11 UNK         0.0166 
     16 S16       -74.1645   29.7106  -70.4093 S.3       11 UNK        -0.2615 
     17 C17       -72.5416   28.8734  -70.4456 C.3       11 UNK        -0.0865 
     18 CA        -71.6800   29.2704  -71.6728 C.3       10 UNK         0.0862 
     19 C         -70.2579   28.6596  -71.5570 C.2       10 UNK         0.5551 
     20 N         -69.2707   29.4481  -71.1551 N.am      10 UNK        -0.7319 
     21 O         -70.0576   27.4672  -71.7794 O.2       10 UNK        -0.5018 
     22 N         -72.3200   28.9010  -72.9450 N.am      10 UNK        -0.4509 
     23 C         -71.9651   29.3924  -74.1387 C.2       10 UNK         0.4899 
     24 O         -71.1048   30.2615  -74.2936 O.2       10 UNK        -0.4839 
     25 CA        -72.7124   28.8168  -75.3562 C.3       9 UNK         0.0222 
     26 CB        -72.2119   29.3822  -76.7025 C.3       9 UNK        -0.1966 
     27 N         -72.7181   27.3500  -75.3775 N.am      9 UNK        -0.4218 
     28 C         -71.6624   26.5257  -75.4508 C.2       9 UNK         0.5020 
     29 O         -70.4887   26.8972  -75.4909 O.2       9 UNK        -0.5274 
     30 CA        -71.9769   25.0217  -75.5329 C.3       8 UNK         0.0270 
     31 CB        -72.3997   24.4480  -74.1709 C.3       8 UNK        -0.1976 
     32 N         -72.9804   24.7140  -76.5610 N.am      8 UNK        -0.4313 
     33 C         -72.7132   24.7518  -77.8759 C.2       8 UNK         0.5041 
     34 O         -71.6154   25.0608  -78.3420 O.2       8 UNK        -0.5577 
     35 CA        -73.8389   24.3697  -78.8431 C.3       7 UNK         0.0284 
     36 CB        -74.1405   22.8610  -78.7838 C.3       7 UNK        -0.1958 
     37 N         -75.0570   25.1410  -78.5838 N.am      7 UNK        -0.4454 
     38 C         -75.5286   26.0873  -79.4077 C.2       7 UNK         0.5089 
     39 O         -74.9558   26.4490  -80.4367 O.2       7 UNK        -0.5125 
     40 CA        -76.8845   26.7247  -79.0647 C.3       6 UNK         0.0408 
     41 CB        -78.0341   25.8818  -79.6391 C.3       6 UNK        -0.1791 
     42 N         -77.1074   26.9449  -77.6357 N.am      6 UNK        -0.4762 
     43 C         -76.5259   27.9231  -76.9261 C.2       6 UNK         0.5007 
     44 O         -75.6446   28.6576  -77.3714 O.2       6 UNK        -0.5032 
     45 CA        -77.0260   28.1265  -75.4845 C.3       5 UNK         0.0783 
     46 C46       -78.3191   28.9820  -75.4356 C.3       11 UNK        -0.0857 
     47 S47       -77.9339   30.7378  -75.1191 S.3       11 UNK        -0.2512 
     48 C48       -78.7313   31.0373  -73.5019 C.3       11 UNK         0.0225 
     49 N         -77.1947   26.8436  -74.8059 N.am      5 UNK        -0.4615 
     50 C         -76.2143   26.2349  -74.1304 C.2       4 UNK         0.5053 
     51 O         -75.0800   26.6933  -74.0164 O.2       4 UNK        -0.5105 
     52 CA        -76.5292   24.8566  -73.5302 C.3       4 UNK         0.0263 
     53 CB        -77.2316   25.0074  -72.1734 C.3       4 UNK        -0.1981 
     54 N         -77.3338   24.0336  -74.4349 N.am      4 UNK        -0.4224 
     55 C         -76.9122   23.6473  -75.6490 C.2       3 UNK         0.4895 
     56 O         -75.7872   23.8969  -76.0862 O.2       3 UNK        -0.5091 
     57 CA        -77.9088   22.9044  -76.5555 C.3       3 UNK         0.0250 
     58 CB        -77.6844   21.3876  -76.4603 C.3       3 UNK        -0.1996 
     59 N         -79.3215   23.2055  -76.2967 N.am      3 UNK        -0.4254 
     60 C         -79.8881   24.4207  -76.3361 C.2       2 UNK         0.5004 
     61 O         -79.2630   25.4570  -76.5723 O.2       2 UNK        -0.5226 
     62 CA        -81.3970   24.5154  -76.0318 C.3       2 UNK         0.0269 
     63 CB        -82.0627   23.1675  -75.6693 C.3       2 UNK        -0.1926 
     64 N         -81.6762   25.5158  -74.9940 N.am      2 UNK        -0.4687 
     65 C         -81.1601   25.5638  -73.7545 C.2       1 UNK         0.5165 
     66 O         -80.3798   24.7142  -73.3221 O.2       1 UNK        -0.5079 
     67 H67       -84.8065   28.6691  -74.3004 H         1 UNK         0.0900 
     68 H68       -83.9724   29.2156  -75.7570 H         1 UNK         0.0900 
     69 H69       -84.0023   30.2397  -74.3194 H         1 UNK         0.0900 
     70 H70       -83.6340   27.1244  -73.1945 H         1 UNK         0.2959 
     71 H71       -80.7166   27.4120  -72.8366 H         1 UNK         0.1079 
     72 H72       -82.5496   27.0685  -70.9184 H         1 UNK         0.0837 
     73 H73       -82.4574   25.3980  -71.3678 H         1 UNK         0.0837 
     74 H74       -79.7867   27.8539  -68.7489 H         1 UNK         0.0685 
     75 H75       -81.0266   28.4567  -69.8140 H         1 UNK         0.0685 
     76 H76       -80.3848   29.7004  -71.8089 H         1 UNK         0.1434 
     77 H77       -76.2269   30.1455  -72.7778 H         1 UNK         0.1329 
     78 H78       -77.4316   27.4745  -69.6484 H         1 UNK         0.1335 
     79 H79       -74.8322   27.9815  -71.9248 H         1 UNK         0.0680 
     80 H80       -75.1586   27.5252  -70.2734 H         1 UNK         0.0680 
     81 H81       -72.0231   29.1431  -69.5233 H         1 UNK         0.1032 
     82 H82       -72.6755   27.7906  -70.4016 H         1 UNK         0.1032 
     83 H83       -71.5833   30.3585  -71.6627 H         1 UNK         0.0461 
     84 H84       -68.3442   29.0630  -71.0572 H         1 UNK         0.3453 
     85 H85       -69.4296   30.4253  -70.9635 H         1 UNK         0.3453 
     86 H86       -73.0106   28.1659  -72.9097 H         1 UNK         0.2984 
     87 H87       -73.7536   29.1213  -75.2434 H         1 UNK         0.0554 
     88 H88       -72.3139   30.4675  -76.7317 H         1 UNK         0.0847 
     89 H89       -72.7881   28.9813  -77.5368 H         1 UNK         0.0847 
     90 H90       -71.1612   29.1487  -76.8770 H         1 UNK         0.0847 
     91 H91       -73.6302   26.9289  -75.2212 H         1 UNK         0.3141 
     92 H92       -71.0501   24.5158  -75.8136 H         1 UNK         0.0743 
     93 H93       -71.6395   24.6481  -73.4145 H         1 UNK         0.0784 
     94 H94       -73.3305   24.8798  -73.8124 H         1 UNK         0.0784 
     95 H95       -72.5310   23.3670  -74.2207 H         1 UNK         0.0784 
     96 H96       -73.9095   24.4365  -76.2549 H         1 UNK         0.3213 
     97 H97       -73.4719   24.5741  -79.8513 H         1 UNK         0.0855 
     98 H98       -74.4565   22.5353  -77.7935 H         1 UNK         0.0814 
     99 H99       -73.2541   22.2808  -79.0437 H         1 UNK         0.0814 
    100 H100      -74.9238   22.5871  -79.4904 H         1 UNK         0.0814 
    101 H101      -75.5601   24.9185  -77.7309 H         1 UNK         0.3105 
    102 H102      -76.9179   27.6989  -79.5578 H         1 UNK         0.0547 
    103 H103      -78.0744   24.8900  -79.1900 H         1 UNK         0.0837 
    104 H104      -78.9988   26.3619  -79.4741 H         1 UNK         0.0837 
    105 H105      -77.9195   25.7471  -80.7155 H         1 UNK         0.0837 
    106 H106      -77.8465   26.3941  -77.2004 H         1 UNK         0.3020 
    107 H107      -76.2381   28.6736  -74.9614 H         1 UNK         0.1245 
    108 H108      -78.9794   28.6244  -74.6451 H         1 UNK         0.0781 
    109 H109      -78.9098   28.9025  -76.3506 H         1 UNK         0.0781 
    110 H110      -78.4687   32.0398  -73.1624 H         1 UNK         0.0836 
    111 H111      -79.8117   31.0400  -73.6549 H         1 UNK         0.0836 
    112 H112      -78.0757   26.3649  -74.9427 H         1 UNK         0.3022 
    113 H113      -75.5855   24.3341  -73.3647 H         1 UNK         0.0747 
    114 H114      -76.5782   25.5012  -71.4536 H         1 UNK         0.0793 
    115 H115      -77.5076   24.0408  -71.7522 H         1 UNK         0.0793 
    116 H116      -78.1359   25.6112  -72.2515 H         1 UNK         0.0793 
    117 H117      -78.2849   23.8319  -74.1532 H         1 UNK         0.3047 
    118 H118      -77.6941   23.2113  -77.5801 H         1 UNK         0.0822 
    119 H119      -76.6455   21.1322  -76.6749 H         1 UNK         0.0807 
    120 H120      -78.3019   20.8480  -77.1786 H         1 UNK         0.0807 
    121 H121      -77.9146   21.0068  -75.4643 H         1 UNK         0.0807 
    122 H122      -79.9121   22.4187  -76.0692 H         1 UNK         0.2946 
    123 H123      -81.8610   24.8793  -76.9500 H         1 UNK         0.1144 
    124 H124      -81.9632   22.4429  -76.4787 H         1 UNK         0.0793 
    125 H125      -83.1311   23.2970  -75.4953 H         1 UNK         0.0793 
    126 H126      -81.6376   22.7256  -74.7672 H         1 UNK         0.0793 
    127 H127      -82.2752   26.2807  -75.2704 H         1 UNK         0.2896 
@<TRIPOS>BOND
     1    1    2 1    
     2    1   67 1    
     3    1   68 1    
     4    1   69 1    
     5    2    3 2    
     6    2    4 am   BACKBONE|DICT|INTERRES
     7    4    5 1    
     8    4   70 1    
     9    5    6 1    
    10    5   65 1    
    11    5   71 1    
    12    6    7 1    
    13    6   72 1    
    14    6   73 1    
    15    7    8 1    
    16    8    9 1    
    17    8   74 1    
    18    8   75 1    
    19    9   10 ar   
    20    9   14 ar   
    21   10   11 ar   
    22   10   76 1    
    23   11   12 ar   
    24   11   48 1    
    25   12   13 ar   
    26   12   77 1    
    27   13   14 ar   
    28   13   15 1    
    29   14   78 1    
    30   15   16 1    
    31   15   79 1    
    32   15   80 1    
    33   16   17 1    
    34   17   18 1    
    35   17   81 1    
    36   17   82 1    
    37   18   19 1    
    38   18   22 1    
    39   18   83 1    
    40   19   20 am   BACKBONE|DICT|INTERRES
    41   19   21 2    
    42   20   84 1    
    43   20   85 1    
    44   22   23 am   BACKBONE|DICT|INTERRES
    45   22   86 1    
    46   23   24 2    
    47   23   25 1    
    48   25   26 1    
    49   25   27 1    
    50   25   87 1    
    51   26   88 1    
    52   26   89 1    
    53   26   90 1    
    54   27   28 am   BACKBONE|DICT|INTERRES
    55   27   91 1    
    56   28   29 2    
    57   28   30 1    
    58   30   31 1    
    59   30   32 1    
    60   30   92 1    
    61   31   93 1    
    62   31   94 1    
    63   31   95 1    
    64   32   33 am   BACKBONE|DICT|INTERRES
    65   32   96 1    
    66   33   34 2    
    67   33   35 1    
    68   35   36 1    
    69   35   37 1    
    70   35   97 1    
    71   36   98 1    
    72   36   99 1    
    73   36  100 1    
    74   37   38 am   BACKBONE|DICT|INTERRES
    75   37  101 1    
    76   38   39 2    
    77   38   40 1    
    78   40   41 1    
    79   40   42 1    
    80   40  102 1    
    81   41  103 1    
    82   41  104 1    
    83   41  105 1    
    84   42   43 am   BACKBONE|DICT|INTERRES
    85   42  106 1    
    86   43   44 2    
    87   43   45 1    
    88   45   46 1    
    89   45   49 1    
    90   45  107 1    
    91   46   47 1    
    92   46  108 1    
    93   46  109 1    
    94   47   48 1    
    95   48  110 1    
    96   48  111 1    
    97   49   50 am   BACKBONE|DICT|INTERRES
    98   49  112 1    
    99   50   51 2    
   100   50   52 1    
   101   52   53 1    
   102   52   54 1    
   103   52  113 1    
   104   53  114 1    
   105   53  115 1    
   106   53  116 1    
   107   54   55 am   BACKBONE|DICT|INTERRES
   108   54  117 1    
   109   55   56 2    
   110   55   57 1    
   111   57   58 1    
   112   57   59 1    
   113   57  118 1    
   114   58  119 1    
   115   58  120 1    
   116   58  121 1    
   117   59   60 am   BACKBONE|DICT|INTERRES
   118   59  122 1    
   119   60   61 2    
   120   60   62 1    
   121   62   63 1    
   122   62   64 1    
   123   62  123 1    
   124   63  124 1    
   125   63  125 1    
   126   63  126 1    
   127   64   65 am   BACKBONE|DICT|INTERRES
   128   64  127 1    
   129   65   66 2    
@<TRIPOS>SUBSTRUCTURE
     1 UNK         1 GROUP             0       ****    0 ROOT    
