@<TRIPOS>MOLECULE
3R135
127   129    1
SMALL
USER_CHARGES


@<TRIPOS>ATOM
      1 CA        -78.9897   30.0841  -78.1355 C.3       0 UNK        -0.1998 
      2 C         -79.4581   29.5770  -76.7810 C.2       0 UNK         0.4909 
      3 O         -80.5675   29.9024  -76.3589 O.2       0 UNK        -0.5240 
      4 N         -78.6284   28.7583  -76.1196 N.am      1 UNK        -0.4739 
      5 CA        -78.8403   28.1195  -74.8089 C.3       1 UNK         0.0864 
      6 C6        -79.1379   29.1196  -73.6572 C.3       11 UNK        -0.0881 
      7 S7        -77.8586   30.4196  -73.5121 S.3       11 UNK        -0.2682 
      8 C8        -77.1600   30.0933  -71.8655 C.3       11 UNK         0.0289 
      9 C9        -76.2784   28.8532  -71.8430 C.ar      11 UNK        -0.0687 
     10 C10       -76.7640   27.6498  -71.3241 C.ar      11 UNK        -0.0823 
     11 C11       -75.9410   26.5213  -71.2607 C.ar      11 UNK        -0.0830 
     12 C12       -74.6130   26.6127  -71.6889 C.ar      11 UNK        -0.1021 
     13 C13       -74.1147   27.8114  -72.2060 C.ar      11 UNK        -0.0753 
     14 C14       -74.9603   28.9191  -72.3039 C.ar      11 UNK        -0.0933 
     15 C15       -72.6631   27.9045  -72.6517 C.3       11 UNK         0.0166 
     16 S16       -71.6121   28.6402  -71.3557 S.3       11 UNK        -0.2615 
     17 C17       -71.3954   30.3445  -71.9710 C.3       11 UNK        -0.0865 
     18 CA        -72.4406   31.3515  -71.3917 C.3       10 UNK         0.0862 
     19 C         -71.8766   32.2513  -70.2497 C.2       10 UNK         0.5551 
     20 N         -72.2836   33.5103  -70.1428 N.am      10 UNK        -0.7319 
     21 O         -71.0838   31.7969  -69.4286 O.2       10 UNK        -0.5018 
     22 N         -73.1643   32.0654  -72.4594 N.am      10 UNK        -0.4509 
     23 C         -72.6122   32.8498  -73.3936 C.2       10 UNK         0.4899 
     24 O         -71.4232   33.1733  -73.4077 O.2       10 UNK        -0.4839 
     25 CA        -73.5586   33.3044  -74.5224 C.3       9 UNK         0.0222 
     26 CB        -72.8279   34.0919  -75.6310 C.3       9 UNK        -0.1966 
     27 N         -74.3318   32.1973  -75.1107 N.am      9 UNK        -0.4218 
     28 C         -73.8514   31.0692  -75.6596 C.2       9 UNK         0.5020 
     29 O         -72.6584   30.7539  -75.6921 O.2       9 UNK        -0.5274 
     30 CA        -74.8844   30.1504  -76.3228 C.3       8 UNK         0.0270 
     31 CB        -75.3543   30.7441  -77.6652 C.3       8 UNK        -0.1976 
     32 N         -74.2778   28.8393  -76.5445 N.am      8 UNK        -0.4313 
     33 C         -74.9511   27.6986  -76.7196 C.2       8 UNK         0.5041 
     34 O         -76.1833   27.6345  -76.7484 O.2       8 UNK        -0.5577 
     35 CA        -74.1271   26.4145  -76.8946 C.3       7 UNK         0.0284 
     36 CB        -73.2171   26.1440  -75.6813 C.3       7 UNK        -0.1958 
     37 N         -75.0580   25.3030  -77.0613 N.am      7 UNK        -0.4454 
     38 C         -74.8045   24.1199  -77.6285 C.2       7 UNK         0.5089 
     39 O         -73.7230   23.8203  -78.1382 O.2       7 UNK        -0.5125 
     40 CA        -75.9639   23.1020  -77.5876 C.3       6 UNK         0.0408 
     41 CB        -75.5565   21.6928  -78.0653 C.3       6 UNK        -0.1791 
     42 N         -76.6012   23.0438  -76.2650 N.am      6 UNK        -0.4762 
     43 C         -76.0183   22.7283  -75.0950 C.2       6 UNK         0.5007 
     44 O         -74.8494   22.3587  -74.9798 O.2       6 UNK        -0.5032 
     45 CA        -76.8887   22.8590  -73.8342 C.3       5 UNK         0.0783 
     46 C46       -76.9634   24.3378  -73.3917 C.3       11 UNK        -0.0857 
     47 S47       -77.8122   24.5354  -71.7881 S.3       11 UNK        -0.2512 
     48 C48       -76.4859   25.2017  -70.7307 C.3       11 UNK         0.0225 
     49 N         -78.2143   22.2924  -74.0832 N.am      5 UNK        -0.4615 
     50 C         -78.5811   21.0436  -73.7705 C.2       4 UNK         0.5053 
     51 O         -77.8621   20.2459  -73.1681 O.2       4 UNK        -0.5105 
     52 CA        -79.9886   20.5999  -74.2121 C.3       4 UNK         0.0263 
     53 CB        -81.0132   20.8828  -73.1016 C.3       4 UNK        -0.1981 
     54 N         -80.4268   21.2480  -75.4505 N.am      4 UNK        -0.4224 
     55 C         -79.8622   21.0573  -76.6517 C.2       3 UNK         0.4895 
     56 O         -78.9917   20.2151  -76.8722 O.2       3 UNK        -0.5091 
     57 CA        -80.3239   21.9713  -77.8016 C.3       3 UNK         0.0250 
     58 CB        -81.2896   21.2165  -78.7299 C.3       3 UNK        -0.1996 
     59 N         -80.9487   23.2340  -77.3829 N.am      3 UNK        -0.4254 
     60 C         -80.3527   24.2058  -76.6771 C.2       2 UNK         0.5004 
     61 O         -79.2135   24.1097  -76.2128 O.2       2 UNK        -0.5226 
     62 CA        -81.1810   25.4844  -76.4713 C.3       2 UNK         0.0269 
     63 CB        -82.3759   25.2512  -75.5220 C.3       2 UNK        -0.1926 
     64 N         -80.3477   26.6244  -76.0649 N.am      2 UNK        -0.4687 
     65 C         -79.8469   26.9437  -74.8600 C.2       1 UNK         0.5165 
     66 O         -80.1233   26.3474  -73.8193 O.2       1 UNK        -0.5079 
     67 H67       -78.2622   29.4077  -78.5838 H         1 UNK         0.0900 
     68 H68       -79.8319   30.1690  -78.8218 H         1 UNK         0.0900 
     69 H69       -78.5336   31.0680  -78.0314 H         1 UNK         0.0900 
     70 H70       -77.7333   28.5001  -76.5381 H         1 UNK         0.2959 
     71 H71       -77.8859   27.6466  -74.5697 H         1 UNK         0.1079 
     72 H72       -79.2193   28.5899  -72.7072 H         1 UNK         0.0837 
     73 H73       -80.1042   29.6032  -73.8050 H         1 UNK         0.0837 
     74 H74       -76.5696   30.9584  -71.5607 H         1 UNK         0.0685 
     75 H75       -77.9671   30.0100  -71.1359 H         1 UNK         0.0685 
     76 H76       -77.7851   27.5841  -70.9741 H         1 UNK         0.1434 
     77 H77       -73.9655   25.7489  -71.6234 H         1 UNK         0.1329 
     78 H78       -74.5853   29.8392  -72.7221 H         1 UNK         0.1335 
     79 H79       -72.2774   26.9093  -72.8774 H         1 UNK         0.0680 
     80 H80       -72.5956   28.4704  -73.5815 H         1 UNK         0.0680 
     81 H81       -71.4273   30.3188  -73.0609 H         1 UNK         0.1032 
     82 H82       -70.3746   30.6596  -71.7465 H         1 UNK         0.1032 
     83 H83       -73.2218   30.7781  -70.8923 H         1 UNK         0.0461 
     84 H84       -72.9370   33.8925  -70.8072 H         1 UNK         0.3453 
     85 H85       -71.9246   34.0852  -69.3968 H         1 UNK         0.3453 
     86 H86       -74.1591   31.9038  -72.5019 H         1 UNK         0.2984 
     87 H87       -74.2822   33.9791  -74.0625 H         1 UNK         0.0554 
     88 H88       -72.3273   34.9709  -75.2229 H         1 UNK         0.0847 
     89 H89       -73.5231   34.4421  -76.3940 H         1 UNK         0.0847 
     90 H90       -72.0679   33.4845  -76.1241 H         1 UNK         0.0847 
     91 H91       -75.3331   32.3371  -75.1314 H         1 UNK         0.3141 
     92 H92       -75.7344   30.0379  -75.6467 H         1 UNK         0.0743 
     93 H93       -74.5128   30.9473  -78.3290 H         1 UNK         0.0784 
     94 H94       -76.0275   30.0678  -78.1892 H         1 UNK         0.0784 
     95 H95       -75.8889   31.6829  -77.5172 H         1 UNK         0.0784 
     96 H96       -73.2659   28.8438  -76.4880 H         1 UNK         0.3213 
     97 H97       -73.5232   26.5184  -77.7984 H         1 UNK         0.0855 
     98 H98       -73.7949   26.0814  -74.7584 H         1 UNK         0.0814 
     99 H99       -72.4724   26.9302  -75.5582 H         1 UNK         0.0814 
    100 H100      -72.6720   25.2066  -75.7936 H         1 UNK         0.0814 
    101 H101      -75.9973   25.5146  -76.7459 H         1 UNK         0.3105 
    102 H102      -76.7245   23.4748  -78.2751 H         1 UNK         0.0547 
    103 H103      -75.1952   21.7194  -79.0939 H         1 UNK         0.0837 
    104 H104      -74.7597   21.2701  -77.4528 H         1 UNK         0.0837 
    105 H105      -76.4022   21.0056  -78.0362 H         1 UNK         0.0837 
    106 H106      -77.5656   23.3733  -76.2377 H         1 UNK         0.3020 
    107 H107      -76.3907   22.2964  -73.0407 H         1 UNK         0.1245 
    108 H108      -77.4965   24.9388  -74.1306 H         1 UNK         0.0781 
    109 H109      -75.9602   24.7614  -73.3300 H         1 UNK         0.0781 
    110 H110      -75.6936   24.4566  -70.6428 H         1 UNK         0.0836 
    111 H111      -76.8772   25.3539  -69.7239 H         1 UNK         0.0836 
    112 H112      -78.8523   22.8789  -74.6082 H         1 UNK         0.3022 
    113 H113      -79.9575   19.5223  -74.3867 H         1 UNK         0.0747 
    114 H114      -82.0030   20.5128  -73.3697 H         1 UNK         0.0793 
    115 H115      -80.7253   20.3896  -72.1720 H         1 UNK         0.0793 
    116 H116      -81.0971   21.9500  -72.8910 H         1 UNK         0.0793 
    117 H117      -81.1489   21.9484  -75.3700 H         1 UNK         0.3047 
    118 H118      -79.4305   22.2275  -78.3754 H         1 UNK         0.0822 
    119 H119      -81.5396   21.8083  -79.6107 H         1 UNK         0.0807 
    120 H120      -82.2195   20.9584  -78.2215 H         1 UNK         0.0807 
    121 H121      -80.8439   20.2861  -79.0853 H         1 UNK         0.0807 
    122 H122      -81.8895   23.3912  -77.7159 H         1 UNK         0.2946 
    123 H123      -81.5833   25.7589  -77.4481 H         1 UNK         0.1144 
    124 H124      -83.0963   24.5594  -75.9595 H         1 UNK         0.0793 
    125 H125      -82.9077   26.1805  -75.3173 H         1 UNK         0.0793 
    126 H126      -82.0646   24.8252  -74.5676 H         1 UNK         0.0793 
    127 H127      -80.0156   27.1952  -76.8294 H         1 UNK         0.2896 
@<TRIPOS>BOND
     1    1    2 1    
     2    1   67 1    
     3    1   68 1    
     4    1   69 1    
     5    2    3 2    
     6    2    4 am   BACKBONE|DICT|INTERRES
     7    4    5 1    
     8    4   70 1    
     9    5    6 1    
    10    5   65 1    
    11    5   71 1    
    12    6    7 1    
    13    6   72 1    
    14    6   73 1    
    15    7    8 1    
    16    8    9 1    
    17    8   74 1    
    18    8   75 1    
    19    9   10 ar   
    20    9   14 ar   
    21   10   11 ar   
    22   10   76 1    
    23   11   12 ar   
    24   11   48 1    
    25   12   13 ar   
    26   12   77 1    
    27   13   14 ar   
    28   13   15 1    
    29   14   78 1    
    30   15   16 1    
    31   15   79 1    
    32   15   80 1    
    33   16   17 1    
    34   17   18 1    
    35   17   81 1    
    36   17   82 1    
    37   18   19 1    
    38   18   22 1    
    39   18   83 1    
    40   19   20 am   BACKBONE|DICT|INTERRES
    41   19   21 2    
    42   20   84 1    
    43   20   85 1    
    44   22   23 am   BACKBONE|DICT|INTERRES
    45   22   86 1    
    46   23   24 2    
    47   23   25 1    
    48   25   26 1    
    49   25   27 1    
    50   25   87 1    
    51   26   88 1    
    52   26   89 1    
    53   26   90 1    
    54   27   28 am   BACKBONE|DICT|INTERRES
    55   27   91 1    
    56   28   29 2    
    57   28   30 1    
    58   30   31 1    
    59   30   32 1    
    60   30   92 1    
    61   31   93 1    
    62   31   94 1    
    63   31   95 1    
    64   32   33 am   BACKBONE|DICT|INTERRES
    65   32   96 1    
    66   33   34 2    
    67   33   35 1    
    68   35   36 1    
    69   35   37 1    
    70   35   97 1    
    71   36   98 1    
    72   36   99 1    
    73   36  100 1    
    74   37   38 am   BACKBONE|DICT|INTERRES
    75   37  101 1    
    76   38   39 2    
    77   38   40 1    
    78   40   41 1    
    79   40   42 1    
    80   40  102 1    
    81   41  103 1    
    82   41  104 1    
    83   41  105 1    
    84   42   43 am   BACKBONE|DICT|INTERRES
    85   42  106 1    
    86   43   44 2    
    87   43   45 1    
    88   45   46 1    
    89   45   49 1    
    90   45  107 1    
    91   46   47 1    
    92   46  108 1    
    93   46  109 1    
    94   47   48 1    
    95   48  110 1    
    96   48  111 1    
    97   49   50 am   BACKBONE|DICT|INTERRES
    98   49  112 1    
    99   50   51 2    
   100   50   52 1    
   101   52   53 1    
   102   52   54 1    
   103   52  113 1    
   104   53  114 1    
   105   53  115 1    
   106   53  116 1    
   107   54   55 am   BACKBONE|DICT|INTERRES
   108   54  117 1    
   109   55   56 2    
   110   55   57 1    
   111   57   58 1    
   112   57   59 1    
   113   57  118 1    
   114   58  119 1    
   115   58  120 1    
   116   58  121 1    
   117   59   60 am   BACKBONE|DICT|INTERRES
   118   59  122 1    
   119   60   61 2    
   120   60   62 1    
   121   62   63 1    
   122   62   64 1    
   123   62  123 1    
   124   63  124 1    
   125   63  125 1    
   126   63  126 1    
   127   64   65 am   BACKBONE|DICT|INTERRES
   128   64  127 1    
   129   65   66 2    
@<TRIPOS>SUBSTRUCTURE
     1 UNK         1 GROUP             0       ****    0 ROOT    
