@<TRIPOS>MOLECULE
3R135
127   129    1
SMALL
USER_CHARGES


@<TRIPOS>ATOM
      1 CA        -79.2022   30.7222  -75.5762 C.3       0 UNK        -0.1998 
      2 C         -79.5533   29.3702  -74.9746 C.2       0 UNK         0.4909 
      3 O         -78.9619   28.3625  -75.3580 O.2       0 UNK        -0.5240 
      4 N         -80.5026   29.3474  -74.0301 N.am      1 UNK        -0.4739 
      5 CA        -80.9584   28.1555  -73.3041 C.3       1 UNK         0.0864 
      6 C6        -81.9288   28.5001  -72.1320 C.3       11 UNK        -0.0881 
      7 S7        -81.6193   30.0910  -71.2756 S.3       11 UNK        -0.2682 
      8 C8        -80.4604   29.6371  -69.9461 C.3       11 UNK         0.0289 
      9 C9        -79.0982   29.2475  -70.4980 C.ar      11 UNK        -0.0687 
     10 C10       -78.6364   27.9363  -70.3610 C.ar      11 UNK        -0.0823 
     11 C11       -77.4181   27.5554  -70.9275 C.ar      11 UNK        -0.0830 
     12 C12       -76.6485   28.4995  -71.6131 C.ar      11 UNK        -0.1021 
     13 C13       -77.0963   29.8151  -71.7516 C.ar      11 UNK        -0.0753 
     14 C14       -78.3158   30.1875  -71.1785 C.ar      11 UNK        -0.0933 
     15 C15       -76.3038   30.8102  -72.5863 C.3       11 UNK         0.0166 
     16 S16       -75.1590   31.8166  -71.5903 S.3       11 UNK        -0.2615 
     17 C17       -73.8234   30.6410  -71.1751 C.3       11 UNK        -0.0865 
     18 CA        -72.6453   30.6885  -72.1827 C.3       10 UNK         0.0862 
     19 C         -71.4253   29.9024  -71.6385 C.2       10 UNK         0.5551 
     20 N         -70.4099   30.5931  -71.1395 N.am      10 UNK        -0.7319 
     21 O         -71.4158   28.6730  -71.6245 O.2       10 UNK        -0.5018 
     22 N         -73.0332   30.1597  -73.4963 N.am      10 UNK        -0.4509 
     23 C         -72.5130   30.5569  -74.6625 C.2       10 UNK         0.4899 
     24 O         -71.7250   31.4972  -74.7810 O.2       10 UNK        -0.4839 
     25 CA        -72.9511   29.7458  -75.8977 C.3       9 UNK         0.0222 
     26 CB        -72.2750   30.2120  -77.2042 C.3       9 UNK        -0.1966 
     27 N         -72.7754   28.3001  -75.7131 N.am      9 UNK        -0.4218 
     28 C         -71.6348   27.6436  -75.4419 C.2       9 UNK         0.5020 
     29 O         -70.5368   28.1825  -75.2965 O.2       9 UNK        -0.5274 
     30 CA        -71.7338   26.1116  -75.3347 C.3       8 UNK         0.0270 
     31 CB        -72.3092   25.6977  -73.9701 C.3       8 UNK        -0.1976 
     32 N         -72.5303   25.5155  -76.4111 N.am      8 UNK        -0.4313 
     33 C         -72.1972   25.5331  -77.7111 C.2       8 UNK         0.5041 
     34 O         -71.1430   25.9984  -78.1457 O.2       8 UNK        -0.5577 
     35 CA        -73.2179   24.9439  -78.6979 C.3       7 UNK         0.0284 
     36 CB        -73.0838   23.4146  -78.7876 C.3       7 UNK        -0.1958 
     37 N         -74.5876   25.3046  -78.3302 N.am      7 UNK        -0.4454 
     38 C         -75.1409   26.5035  -78.5637 C.2       7 UNK         0.5089 
     39 O         -74.5930   27.3993  -79.2061 O.2       7 UNK        -0.5125 
     40 CA        -76.5357   26.7546  -77.9649 C.3       6 UNK         0.0408 
     41 CB        -77.6344   26.4104  -78.9818 C.3       6 UNK        -0.1791 
     42 N         -76.7636   26.0050  -76.7280 N.am      6 UNK        -0.4762 
     43 C         -76.1657   26.2852  -75.5593 C.2       6 UNK         0.5007 
     44 O         -75.3578   27.2022  -75.4064 O.2       6 UNK        -0.5032 
     45 CA        -76.4755   25.3566  -74.3677 C.3       5 UNK         0.0783 
     46 C46       -77.7028   25.8861  -73.6044 C.3       11 UNK        -0.0857 
     47 S47       -77.9493   25.0572  -71.9966 S.3       11 UNK        -0.2512 
     48 C48       -76.9699   26.1042  -70.8699 C.3       11 UNK         0.0225 
     49 N         -76.6516   23.9586  -74.7685 N.am      5 UNK        -0.4615 
     50 C         -75.7348   23.2255  -75.4126 C.2       4 UNK         0.5053 
     51 O         -74.6022   23.6351  -75.6685 O.2       4 UNK        -0.5105 
     52 CA        -76.1522   21.8280  -75.9042 C.3       4 UNK         0.0263 
     53 CB        -75.5785   20.7456  -74.9769 C.3       4 UNK        -0.1981 
     54 N         -77.6004   21.6283  -76.0417 N.am      4 UNK        -0.4224 
     55 C         -78.4286   22.3421  -76.8197 C.2       3 UNK         0.4895 
     56 O         -78.0654   23.2982  -77.5077 O.2       3 UNK        -0.5091 
     57 CA        -79.9185   21.9422  -76.8236 C.3       3 UNK         0.0250 
     58 CB        -80.2398   20.6694  -76.0052 C.3       3 UNK        -0.1996 
     59 N         -80.7897   23.0482  -76.4054 N.am      3 UNK        -0.4254 
     60 C         -80.7310   23.7253  -75.2491 C.2       2 UNK         0.5004 
     61 O         -79.9063   23.5066  -74.3593 O.2       2 UNK        -0.5226 
     62 CA        -81.8031   24.8014  -75.0385 C.3       2 UNK         0.0269 
     63 CB        -83.0769   24.1903  -74.4280 C.3       2 UNK        -0.1926 
     64 N         -81.2956   25.8547  -74.1569 N.am      2 UNK        -0.4687 
     65 C         -81.6224   27.1482  -74.2721 C.2       1 UNK         0.5165 
     66 O         -82.4427   27.5652  -75.0951 O.2       1 UNK        -0.5079 
     67 H67       -78.1352   30.9139  -75.4663 H         1 UNK         0.0900 
     68 H68       -79.7444   31.5359  -75.0948 H         1 UNK         0.0900 
     69 H69       -79.4429   30.7328  -76.6388 H         1 UNK         0.0900 
     70 H70       -80.9561   30.2065  -73.7543 H         1 UNK         0.2959 
     71 H71       -80.0659   27.6898  -72.8821 H         1 UNK         0.1079 
     72 H72       -81.9283   27.6918  -71.3987 H         1 UNK         0.0837 
     73 H73       -82.9573   28.5629  -72.4944 H         1 UNK         0.0837 
     74 H74       -80.8921   28.8334  -69.3476 H         1 UNK         0.0685 
     75 H75       -80.3404   30.4898  -69.2765 H         1 UNK         0.0685 
     76 H76       -79.2418   27.1988  -69.8516 H         1 UNK         0.1434 
     77 H77       -75.7247   28.1946  -72.0847 H         1 UNK         0.1329 
     78 H78       -78.6784   31.1994  -71.2974 H         1 UNK         0.1335 
     79 H79       -76.9951   31.4832  -73.0956 H         1 UNK         0.0680 
     80 H80       -75.7600   30.2944  -73.3779 H         1 UNK         0.0680 
     81 H81       -73.4707   30.9156  -70.1789 H         1 UNK         0.1032 
     82 H82       -74.2142   29.6296  -71.0729 H         1 UNK         0.1032 
     83 H83       -72.3536   31.7350  -72.2971 H         1 UNK         0.0461 
     84 H84       -69.6159   30.0965  -70.7664 H         1 UNK         0.3453 
     85 H85       -70.4150   31.6015  -71.1399 H         1 UNK         0.3453 
     86 H86       -73.6185   29.3385  -73.4890 H         1 UNK         0.2984 
     87 H87       -74.0242   29.9093  -76.0081 H         1 UNK         0.0554 
     88 H88       -72.4877   31.2634  -77.4008 H         1 UNK         0.0847 
     89 H89       -72.6366   29.6420  -78.0604 H         1 UNK         0.0847 
     90 H90       -71.1910   30.1013  -77.1621 H         1 UNK         0.0847 
     91 H91       -73.6382   27.7590  -75.7495 H         1 UNK         0.3141 
     92 H92       -70.7226   25.7065  -75.4118 H         1 UNK         0.0743 
     93 H93       -71.6923   26.0829  -73.1567 H         1 UNK         0.0784 
     94 H94       -73.3169   26.0840  -73.8210 H         1 UNK         0.0784 
     95 H95       -72.3461   24.6131  -73.8656 H         1 UNK         0.0784 
     96 H96       -73.3780   25.0242  -76.1388 H         1 UNK         0.3213 
     97 H97       -73.0033   25.3571  -79.6863 H         1 UNK         0.0855 
     98 H98       -73.2613   22.9287  -77.8281 H         1 UNK         0.0814 
     99 H99       -72.0806   23.1335  -79.1107 H         1 UNK         0.0814 
    100 H100      -73.7848   22.9966  -79.5102 H         1 UNK         0.0814 
    101 H101      -75.1020   24.6423  -77.7665 H         1 UNK         0.3105 
    102 H102      -76.6115   27.8193  -77.7328 H         1 UNK         0.0547 
    103 H103      -77.5150   26.9933  -79.8960 H         1 UNK         0.0837 
    104 H104      -77.6116   25.3566  -79.2618 H         1 UNK         0.0837 
    105 H105      -78.6250   26.6311  -78.5838 H         1 UNK         0.0837 
    106 H106      -77.3782   25.2000  -76.7885 H         1 UNK         0.3020 
    107 H107      -75.6111   25.3973  -73.7029 H         1 UNK         0.1245 
    108 H108      -78.5957   25.7424  -74.2098 H         1 UNK         0.0781 
    109 H109      -77.6429   26.9633  -73.4649 H         1 UNK         0.0781 
    110 H110      -77.0757   25.7288  -69.8511 H         1 UNK         0.0836 
    111 H111      -75.9121   26.0130  -71.1212 H         1 UNK         0.0836 
    112 H112      -77.5649   23.5584  -74.5903 H         1 UNK         0.3022 
    113 H113      -75.7126   21.6975  -76.8951 H         1 UNK         0.0747 
    114 H114      -74.4968   20.8496  -74.8773 H         1 UNK         0.0793 
    115 H115      -75.7701   19.7453  -75.3658 H         1 UNK         0.0793 
    116 H116      -76.0050   20.8058  -73.9747 H         1 UNK         0.0793 
    117 H117      -78.0025   20.8820  -75.4931 H         1 UNK         0.3047 
    118 H118      -80.1654   21.7324  -77.8654 H         1 UNK         0.0822 
    119 H119      -81.2924   20.4026  -76.1013 H         1 UNK         0.0807 
    120 H120      -80.0337   20.7969  -74.9416 H         1 UNK         0.0807 
    121 H121      -79.6657   19.8121  -76.3598 H         1 UNK         0.0807 
    122 H122      -81.4910   23.3187  -77.0811 H         1 UNK         0.2946 
    123 H123      -82.0421   25.2271  -76.0163 H         1 UNK         0.1144 
    124 H124      -83.4759   23.3971  -75.0616 H         1 UNK         0.0793 
    125 H125      -83.8615   24.9388  -74.3152 H         1 UNK         0.0793 
    126 H126      -82.8828   23.7577  -73.4456 H         1 UNK         0.0793 
    127 H127      -80.5937   25.5513  -73.4929 H         1 UNK         0.2896 
@<TRIPOS>BOND
     1    1    2 1    
     2    1   67 1    
     3    1   68 1    
     4    1   69 1    
     5    2    3 2    
     6    2    4 am   BACKBONE|DICT|INTERRES
     7    4    5 1    
     8    4   70 1    
     9    5    6 1    
    10    5   65 1    
    11    5   71 1    
    12    6    7 1    
    13    6   72 1    
    14    6   73 1    
    15    7    8 1    
    16    8    9 1    
    17    8   74 1    
    18    8   75 1    
    19    9   10 ar   
    20    9   14 ar   
    21   10   11 ar   
    22   10   76 1    
    23   11   12 ar   
    24   11   48 1    
    25   12   13 ar   
    26   12   77 1    
    27   13   14 ar   
    28   13   15 1    
    29   14   78 1    
    30   15   16 1    
    31   15   79 1    
    32   15   80 1    
    33   16   17 1    
    34   17   18 1    
    35   17   81 1    
    36   17   82 1    
    37   18   19 1    
    38   18   22 1    
    39   18   83 1    
    40   19   20 am   BACKBONE|DICT|INTERRES
    41   19   21 2    
    42   20   84 1    
    43   20   85 1    
    44   22   23 am   BACKBONE|DICT|INTERRES
    45   22   86 1    
    46   23   24 2    
    47   23   25 1    
    48   25   26 1    
    49   25   27 1    
    50   25   87 1    
    51   26   88 1    
    52   26   89 1    
    53   26   90 1    
    54   27   28 am   BACKBONE|DICT|INTERRES
    55   27   91 1    
    56   28   29 2    
    57   28   30 1    
    58   30   31 1    
    59   30   32 1    
    60   30   92 1    
    61   31   93 1    
    62   31   94 1    
    63   31   95 1    
    64   32   33 am   BACKBONE|DICT|INTERRES
    65   32   96 1    
    66   33   34 2    
    67   33   35 1    
    68   35   36 1    
    69   35   37 1    
    70   35   97 1    
    71   36   98 1    
    72   36   99 1    
    73   36  100 1    
    74   37   38 am   BACKBONE|DICT|INTERRES
    75   37  101 1    
    76   38   39 2    
    77   38   40 1    
    78   40   41 1    
    79   40   42 1    
    80   40  102 1    
    81   41  103 1    
    82   41  104 1    
    83   41  105 1    
    84   42   43 am   BACKBONE|DICT|INTERRES
    85   42  106 1    
    86   43   44 2    
    87   43   45 1    
    88   45   46 1    
    89   45   49 1    
    90   45  107 1    
    91   46   47 1    
    92   46  108 1    
    93   46  109 1    
    94   47   48 1    
    95   48  110 1    
    96   48  111 1    
    97   49   50 am   BACKBONE|DICT|INTERRES
    98   49  112 1    
    99   50   51 2    
   100   50   52 1    
   101   52   53 1    
   102   52   54 1    
   103   52  113 1    
   104   53  114 1    
   105   53  115 1    
   106   53  116 1    
   107   54   55 am   BACKBONE|DICT|INTERRES
   108   54  117 1    
   109   55   56 2    
   110   55   57 1    
   111   57   58 1    
   112   57   59 1    
   113   57  118 1    
   114   58  119 1    
   115   58  120 1    
   116   58  121 1    
   117   59   60 am   BACKBONE|DICT|INTERRES
   118   59  122 1    
   119   60   61 2    
   120   60   62 1    
   121   62   63 1    
   122   62   64 1    
   123   62  123 1    
   124   63  124 1    
   125   63  125 1    
   126   63  126 1    
   127   64   65 am   BACKBONE|DICT|INTERRES
   128   64  127 1    
   129   65   66 2    
@<TRIPOS>SUBSTRUCTURE
     1 UNK         1 GROUP             0       ****    0 ROOT    
