@<TRIPOS>MOLECULE
3R135
127   129    1
SMALL
USER_CHARGES


@<TRIPOS>ATOM
      1 CA        -84.6009   25.9421  -71.3550 C.3       0 UNK        -0.1998 
      2 C         -83.4103   26.8762  -71.1570 C.2       0 UNK         0.4909 
      3 O         -82.9475   27.0346  -70.0294 O.2       0 UNK        -0.5240 
      4 N         -82.8784   27.5203  -72.2058 N.am      1 UNK        -0.4739 
      5 CA        -83.2697   27.4069  -73.6187 C.3       1 UNK         0.0864 
      6 C6        -82.7911   28.6389  -74.4343 C.3       11 UNK        -0.0881 
      7 S7        -80.9753   28.7695  -74.6082 S.3       11 UNK        -0.2682 
      8 C8        -80.5453   29.9110  -73.2628 C.3       11 UNK         0.0289 
      9 C9        -79.1068   29.6921  -72.8254 C.ar      11 UNK        -0.0687 
     10 C10       -78.8005   28.6887  -71.9020 C.ar      11 UNK        -0.0823 
     11 C11       -77.4814   28.4800  -71.4912 C.ar      11 UNK        -0.0830 
     12 C12       -76.4657   29.2861  -72.0154 C.ar      11 UNK        -0.1021 
     13 C13       -76.7565   30.3008  -72.9403 C.ar      11 UNK        -0.0753 
     14 C14       -78.0825   30.4893  -73.3413 C.ar      11 UNK        -0.0933 
     15 C15       -75.6829   31.1966  -73.5613 C.3       11 UNK         0.0166 
     16 S16       -74.0729   31.1899  -72.7030 S.3       11 UNK        -0.2615 
     17 C17       -72.9348   31.5950  -74.0733 C.3       11 UNK        -0.0865 
     18 CA        -72.6693   30.4069  -75.0506 C.3       10 UNK         0.0862 
     19 C         -71.6628   30.7696  -76.1842 C.2       10 UNK         0.5551 
     20 N         -71.0070   29.8061  -76.8195 N.am      10 UNK        -0.7319 
     21 O         -71.4786   31.9409  -76.5080 O.2       10 UNK        -0.5018 
     22 N         -72.3849   29.1352  -74.3655 N.am      10 UNK        -0.4509 
     23 C         -71.3476   28.9036  -73.5505 C.2       10 UNK         0.4899 
     24 O         -70.4498   29.7128  -73.3147 O.2       10 UNK        -0.4839 
     25 CA        -71.3134   27.5277  -72.8768 C.3       9 UNK         0.0222 
     26 CB        -72.3014   27.4718  -71.6985 C.3       9 UNK        -0.1966 
     27 N         -71.6241   26.4745  -73.8441 N.am      9 UNK        -0.4218 
     28 C         -70.6947   25.8323  -74.5627 C.2       9 UNK         0.5020 
     29 O         -69.4831   26.0283  -74.4519 O.2       9 UNK        -0.5274 
     30 CA        -71.1836   24.7738  -75.5610 C.3       8 UNK         0.0270 
     31 CB        -71.4492   23.4423  -74.8394 C.3       8 UNK        -0.1976 
     32 N         -72.3646   25.1642  -76.3369 N.am      8 UNK        -0.4313 
     33 C         -72.3661   26.1126  -77.2853 C.2       8 UNK         0.5041 
     34 O         -71.4287   26.8881  -77.4754 O.2       8 UNK        -0.5577 
     35 CA        -73.5978   26.1827  -78.2047 C.3       7 UNK         0.0284 
     36 CB        -73.8229   24.8560  -78.9515 C.3       7 UNK        -0.1958 
     37 N         -74.8030   26.5397  -77.4648 N.am      7 UNK        -0.4454 
     38 C         -75.1279   27.7844  -77.0944 C.2       7 UNK         0.5089 
     39 O         -74.5223   28.7892  -77.4645 O.2       7 UNK        -0.5125 
     40 CA        -76.3143   27.9373  -76.1226 C.3       6 UNK         0.0408 
     41 CB        -77.6192   28.1917  -76.8892 C.3       6 UNK        -0.1791 
     42 N         -76.4894   26.7943  -75.2218 N.am      6 UNK        -0.4762 
     43 C         -75.5606   26.3581  -74.3571 C.2       6 UNK         0.5007 
     44 O         -74.4487   26.8738  -74.2223 O.2       6 UNK        -0.5032 
     45 CA        -75.9022   25.0752  -73.5780 C.3       5 UNK         0.0783 
     46 C46       -76.8306   25.3493  -72.3704 C.3       11 UNK        -0.0857 
     47 S47       -75.9475   26.1784  -71.0068 S.3       11 UNK        -0.2512 
     48 C48       -77.1675   27.4124  -70.4478 C.3       11 UNK         0.0225 
     49 N         -76.4575   24.0574  -74.4748 N.am      5 UNK        -0.4615 
     50 C         -75.7460   23.3985  -75.4007 C.2       4 UNK         0.5053 
     51 O         -74.5403   23.5591  -75.5756 O.2       4 UNK        -0.5105 
     52 CA        -76.5067   22.4266  -76.3170 C.3       4 UNK         0.0263 
     53 CB        -76.6723   21.0596  -75.6352 C.3       4 UNK        -0.1981 
     54 N         -77.8164   22.9378  -76.7213 N.am      4 UNK        -0.4224 
     55 C         -78.0075   24.0367  -77.4659 C.2       3 UNK         0.4895 
     56 O         -77.0945   24.6975  -77.9591 O.2       3 UNK        -0.5091 
     57 CA        -79.4619   24.5031  -77.6516 C.3       3 UNK         0.0250 
     58 CB        -80.0661   23.8882  -78.9237 C.3       3 UNK        -0.1996 
     59 N         -80.3287   24.2091  -76.5038 N.am      3 UNK        -0.4254 
     60 C         -80.1313   24.6687  -75.2604 C.2       2 UNK         0.5004 
     61 O         -79.1744   25.3746  -74.9306 O.2       2 UNK        -0.5226 
     62 CA        -81.1493   24.2384  -74.1954 C.3       2 UNK         0.0269 
     63 CB        -80.4571   23.4783  -73.0514 C.3       2 UNK        -0.1926 
     64 N         -81.8164   25.4176  -73.6543 N.am      2 UNK        -0.4687 
     65 C         -82.8085   26.0802  -74.2657 C.2       1 UNK         0.5165 
     66 O         -83.3577   25.6845  -75.2948 O.2       1 UNK        -0.5079 
     67 H67       -84.9538   25.5686  -70.3939 H         1 UNK         0.0900 
     68 H68       -84.3268   25.0800  -71.9617 H         1 UNK         0.0900 
     69 H69       -85.4335   26.4603  -71.8293 H         1 UNK         0.0900 
     70 H70       -82.0969   28.1347  -72.0360 H         1 UNK         0.2959 
     71 H71       -84.3601   27.4066  -73.6671 H         1 UNK         0.1079 
     72 H72       -83.2169   28.6033  -75.4390 H         1 UNK         0.0837 
     73 H73       -83.1803   29.5570  -73.9911 H         1 UNK         0.0837 
     74 H74       -80.6960   30.9375  -73.6004 H         1 UNK         0.0685 
     75 H75       -81.2104   29.7689  -72.4109 H         1 UNK         0.0685 
     76 H76       -79.5931   28.0723  -71.5010 H         1 UNK         0.1434 
     77 H77       -75.4496   29.1065  -71.6959 H         1 UNK         0.1329 
     78 H78       -78.3197   31.2592  -74.0630 H         1 UNK         0.1335 
     79 H79       -75.5490   30.8893  -74.5973 H         1 UNK         0.0680 
     80 H80       -76.0409   32.2268  -73.5922 H         1 UNK         0.0680 
     81 H81       -71.9955   31.9362  -73.6349 H         1 UNK         0.1032 
     82 H82       -73.3372   32.4523  -74.6161 H         1 UNK         0.1032 
     83 H83       -73.6044   30.2315  -75.5764 H         1 UNK         0.0461 
     84 H84       -70.3637   30.0558  -77.5527 H         1 UNK         0.3453 
     85 H85       -71.1987   28.8282  -76.6392 H         1 UNK         0.3453 
     86 H86       -73.0829   28.4082  -74.4754 H         1 UNK         0.2984 
     87 H87       -70.3117   27.3729  -72.4701 H         1 UNK         0.0554 
     88 H88       -72.2938   26.4938  -71.2176 H         1 UNK         0.0847 
     89 H89       -73.3249   27.6833  -72.0084 H         1 UNK         0.0847 
     90 H90       -72.0391   28.2097  -70.9394 H         1 UNK         0.0847 
     91 H91       -72.6083   26.3093  -74.0365 H         1 UNK         0.3141 
     92 H92       -70.3734   24.6053  -76.2739 H         1 UNK         0.0743 
     93 H93       -72.2513   23.5333  -74.1059 H         1 UNK         0.0784 
     94 H94       -71.7270   22.6572  -75.5431 H         1 UNK         0.0784 
     95 H95       -70.5595   23.1015  -74.3082 H         1 UNK         0.0784 
     96 H96       -73.1985   24.5941  -76.1971 H         1 UNK         0.3213 
     97 H97       -73.4063   26.9534  -78.9549 H         1 UNK         0.0855 
     98 H98       -72.9267   24.5578  -79.4972 H         1 UNK         0.0814 
     99 H99       -74.6297   24.9480  -79.6788 H         1 UNK         0.0814 
    100 H100      -74.0821   24.0405  -78.2759 H         1 UNK         0.0814 
    101 H101      -75.4171   25.7830  -77.1870 H         1 UNK         0.3105 
    102 H102      -76.1139   28.8069  -75.4963 H         1 UNK         0.0547 
    103 H103      -78.4582   28.3303  -76.2077 H         1 UNK         0.0837 
    104 H104      -77.8597   27.3658  -77.5579 H         1 UNK         0.0837 
    105 H105      -77.5427   29.0931  -77.4984 H         1 UNK         0.0837 
    106 H106      -77.3846   26.3145  -75.2515 H         1 UNK         0.3020 
    107 H107      -74.9602   24.6771  -73.1924 H         1 UNK         0.1245 
    108 H108      -77.2135   24.4078  -71.9741 H         1 UNK         0.0781 
    109 H109      -77.7069   25.9271  -72.6705 H         1 UNK         0.0781 
    110 H110      -76.7794   27.9039  -69.5548 H         1 UNK         0.0836 
    111 H111      -78.0740   26.8905  -70.1371 H         1 UNK         0.0836 
    112 H112      -77.4615   23.9456  -74.4564 H         1 UNK         0.3022 
    113 H113      -75.9090   22.2882  -77.2207 H         1 UNK         0.0747 
    114 H114      -77.1361   20.3355  -76.3053 H         1 UNK         0.0793 
    115 H115      -75.7039   20.6518  -75.3414 H         1 UNK         0.0793 
    116 H116      -77.2847   21.1255  -74.7349 H         1 UNK         0.0793 
    117 H117      -78.6281   22.4510  -76.3708 H         1 UNK         0.3047 
    118 H118      -79.4430   25.5876  -77.7738 H         1 UNK         0.0822 
    119 H119      -81.0617   24.2855  -79.1229 H         1 UNK         0.0807 
    120 H120      -80.1446   22.8026  -78.8517 H         1 UNK         0.0807 
    121 H121      -79.4500   24.1133  -79.7956 H         1 UNK         0.0807 
    122 H122      -81.1468   23.6468  -76.6913 H         1 UNK         0.2946 
    123 H123      -81.8945   23.5781  -74.6453 H         1 UNK         0.1144 
    124 H124      -79.9377   22.5950  -73.4254 H         1 UNK         0.0793 
    125 H125      -81.1801   23.1381  -72.3098 H         1 UNK         0.0793 
    126 H126      -79.7210   24.0981  -72.5381 H         1 UNK         0.0793 
    127 H127      -81.3949   25.8434  -72.8419 H         1 UNK         0.2896 
@<TRIPOS>BOND
     1    1    2 1    
     2    1   67 1    
     3    1   68 1    
     4    1   69 1    
     5    2    3 2    
     6    2    4 am   BACKBONE|DICT|INTERRES
     7    4    5 1    
     8    4   70 1    
     9    5    6 1    
    10    5   65 1    
    11    5   71 1    
    12    6    7 1    
    13    6   72 1    
    14    6   73 1    
    15    7    8 1    
    16    8    9 1    
    17    8   74 1    
    18    8   75 1    
    19    9   10 ar   
    20    9   14 ar   
    21   10   11 ar   
    22   10   76 1    
    23   11   12 ar   
    24   11   48 1    
    25   12   13 ar   
    26   12   77 1    
    27   13   14 ar   
    28   13   15 1    
    29   14   78 1    
    30   15   16 1    
    31   15   79 1    
    32   15   80 1    
    33   16   17 1    
    34   17   18 1    
    35   17   81 1    
    36   17   82 1    
    37   18   19 1    
    38   18   22 1    
    39   18   83 1    
    40   19   20 am   BACKBONE|DICT|INTERRES
    41   19   21 2    
    42   20   84 1    
    43   20   85 1    
    44   22   23 am   BACKBONE|DICT|INTERRES
    45   22   86 1    
    46   23   24 2    
    47   23   25 1    
    48   25   26 1    
    49   25   27 1    
    50   25   87 1    
    51   26   88 1    
    52   26   89 1    
    53   26   90 1    
    54   27   28 am   BACKBONE|DICT|INTERRES
    55   27   91 1    
    56   28   29 2    
    57   28   30 1    
    58   30   31 1    
    59   30   32 1    
    60   30   92 1    
    61   31   93 1    
    62   31   94 1    
    63   31   95 1    
    64   32   33 am   BACKBONE|DICT|INTERRES
    65   32   96 1    
    66   33   34 2    
    67   33   35 1    
    68   35   36 1    
    69   35   37 1    
    70   35   97 1    
    71   36   98 1    
    72   36   99 1    
    73   36  100 1    
    74   37   38 am   BACKBONE|DICT|INTERRES
    75   37  101 1    
    76   38   39 2    
    77   38   40 1    
    78   40   41 1    
    79   40   42 1    
    80   40  102 1    
    81   41  103 1    
    82   41  104 1    
    83   41  105 1    
    84   42   43 am   BACKBONE|DICT|INTERRES
    85   42  106 1    
    86   43   44 2    
    87   43   45 1    
    88   45   46 1    
    89   45   49 1    
    90   45  107 1    
    91   46   47 1    
    92   46  108 1    
    93   46  109 1    
    94   47   48 1    
    95   48  110 1    
    96   48  111 1    
    97   49   50 am   BACKBONE|DICT|INTERRES
    98   49  112 1    
    99   50   51 2    
   100   50   52 1    
   101   52   53 1    
   102   52   54 1    
   103   52  113 1    
   104   53  114 1    
   105   53  115 1    
   106   53  116 1    
   107   54   55 am   BACKBONE|DICT|INTERRES
   108   54  117 1    
   109   55   56 2    
   110   55   57 1    
   111   57   58 1    
   112   57   59 1    
   113   57  118 1    
   114   58  119 1    
   115   58  120 1    
   116   58  121 1    
   117   59   60 am   BACKBONE|DICT|INTERRES
   118   59  122 1    
   119   60   61 2    
   120   60   62 1    
   121   62   63 1    
   122   62   64 1    
   123   62  123 1    
   124   63  124 1    
   125   63  125 1    
   126   63  126 1    
   127   64   65 am   BACKBONE|DICT|INTERRES
   128   64  127 1    
   129   65   66 2    
@<TRIPOS>SUBSTRUCTURE
     1 UNK         1 GROUP             0       ****    0 ROOT    
