@<TRIPOS>MOLECULE
3R135
127   129    1
SMALL
USER_CHARGES


@<TRIPOS>ATOM
      1 CA        -79.0726   22.5238  -73.8002 C.3       0 UNK        -0.1998 
      2 C         -80.3796   22.7937  -73.0728 C.2       0 UNK         0.4909 
      3 O         -81.1526   21.8652  -72.8374 O.2       0 UNK        -0.5240 
      4 N         -80.6438   24.0614  -72.7300 N.am      1 UNK        -0.4739 
      5 CA        -81.8743   24.5109  -72.0622 C.3       1 UNK         0.0864 
      6 C6        -81.6320   25.8001  -71.2352 C.3       11 UNK        -0.0881 
      7 S7        -81.1326   27.2468  -72.2363 S.3       11 UNK        -0.2682 
      8 C8        -80.1758   28.2239  -71.0359 C.3       11 UNK         0.0289 
      9 C9        -78.6781   28.0550  -71.2418 C.ar      11 UNK        -0.0687 
     10 C10       -78.0496   26.8550  -70.8998 C.ar      11 UNK        -0.0823 
     11 C11       -76.6769   26.6915  -71.0983 C.ar      11 UNK        -0.0830 
     12 C12       -75.9219   27.7509  -71.6075 C.ar      11 UNK        -0.1021 
     13 C13       -76.5402   28.9506  -71.9678 C.ar      11 UNK        -0.0753 
     14 C14       -77.9183   29.0986  -71.7807 C.ar      11 UNK        -0.0933 
     15 C15       -75.7212   30.0711  -72.5876 C.3       11 UNK         0.0166 
     16 S16       -75.1410   29.5897  -74.2414 S.3       11 UNK        -0.2615 
     17 C17       -74.6708   31.2008  -74.9627 C.3       11 UNK        -0.0865 
     18 CA        -73.1392   31.4147  -75.0826 C.3       10 UNK         0.0862 
     19 C         -72.4769   31.7621  -73.7153 C.2       10 UNK         0.5551 
     20 N         -71.4330   31.0717  -73.2719 N.am      10 UNK        -0.7319 
     21 O         -72.9139   32.6950  -73.0457 O.2       10 UNK        -0.5018 
     22 N         -72.5050   30.3132  -75.8211 N.am      10 UNK        -0.4509 
     23 C         -71.3793   30.4055  -76.5383 C.2       10 UNK         0.4899 
     24 O         -70.7895   31.4657  -76.7536 O.2       10 UNK        -0.4839 
     25 CA        -70.8177   29.0775  -77.0897 C.3       9 UNK         0.0222 
     26 CB        -69.3501   29.1946  -77.5517 C.3       9 UNK        -0.1966 
     27 N         -70.9727   27.9523  -76.1565 N.am      9 UNK        -0.4218 
     28 C         -70.5264   27.8811  -74.8905 C.2       9 UNK         0.5020 
     29 O         -69.9058   28.7858  -74.3312 O.2       9 UNK        -0.5274 
     30 CA        -70.8512   26.6093  -74.0896 C.3       8 UNK         0.0270 
     31 CB        -71.9419   26.9046  -73.0448 C.3       8 UNK        -0.1976 
     32 N         -71.2764   25.4981  -74.9458 N.am      8 UNK        -0.4313 
     33 C         -70.4294   24.6604  -75.5638 C.2       8 UNK         0.5041 
     34 O         -69.2059   24.7118  -75.4313 O.2       8 UNK        -0.5577 
     35 CA        -71.0286   23.5800  -76.4851 C.3       7 UNK         0.0284 
     36 CB        -71.0870   22.2281  -75.7548 C.3       7 UNK        -0.1958 
     37 N         -72.3623   23.9046  -76.9963 N.am      7 UNK        -0.4454 
     38 C         -72.6359   24.8820  -77.8718 C.2       7 UNK         0.5089 
     39 O         -71.7827   25.6111  -78.3768 O.2       7 UNK        -0.5125 
     40 CA        -74.1251   25.1268  -78.1814 C.3       6 UNK         0.0408 
     41 CB        -74.5784   24.2627  -79.3683 C.3       6 UNK        -0.1791 
     42 N         -75.0141   24.8944  -77.0334 N.am      6 UNK        -0.4762 
     43 C         -74.9194   25.5403  -75.8622 C.2       6 UNK         0.5007 
     44 O         -74.0569   26.3884  -75.6250 O.2       6 UNK        -0.5032 
     45 CA        -75.9339   25.1803  -74.7665 C.3       5 UNK         0.0783 
     46 C46       -75.1948   24.8269  -73.4502 C.3       11 UNK        -0.0857 
     47 S47       -76.2981   24.1742  -72.1541 S.3       11 UNK        -0.2512 
     48 C48       -76.0235   25.3548  -70.7948 C.3       11 UNK         0.0225 
     49 N         -76.8327   26.3292  -74.6447 N.am      5 UNK        -0.4615 
     50 C         -77.9860   26.4404  -75.3127 C.2       4 UNK         0.5053 
     51 O         -78.5272   25.5068  -75.9122 O.2       4 UNK        -0.5105 
     52 CA        -78.6172   27.8356  -75.3786 C.3       4 UNK         0.0263 
     53 CB        -77.9110   28.6949  -76.4468 C.3       4 UNK        -0.1981 
     54 N         -80.0259   27.6893  -75.7298 N.am      4 UNK        -0.4224 
     55 C         -80.9796   28.6188  -75.5856 C.2       3 UNK         0.4895 
     56 O         -80.7851   29.7408  -75.1175 O.2       3 UNK        -0.5091 
     57 CA        -82.3933   28.2269  -76.0377 C.3       3 UNK         0.0250 
     58 CB        -82.5421   28.4738  -77.5543 C.3       3 UNK        -0.1996 
     59 N         -82.6699   26.8323  -75.6829 N.am      3 UNK        -0.4254 
     60 C         -83.8219   26.1683  -75.8460 C.2       2 UNK         0.5004 
     61 O         -84.8426   26.6584  -76.3297 O.2       2 UNK        -0.5226 
     62 CA        -83.8373   24.6978  -75.3913 C.3       2 UNK         0.0269 
     63 CB        -83.5466   23.7673  -76.5802 C.3       2 UNK        -0.1926 
     64 N         -82.8599   24.4378  -74.3306 N.am      2 UNK        -0.4687 
     65 C         -83.0752   24.6668  -73.0269 C.2       1 UNK         0.5165 
     66 O         -84.1684   25.0146  -72.5771 O.2       1 UNK        -0.5079 
     67 H67       -79.2587   21.9660  -74.7176 H         1 UNK         0.0900 
     68 H68       -78.4057   21.9359  -73.1702 H         1 UNK         0.0900 
     69 H69       -78.5638   23.4487  -74.0666 H         1 UNK         0.0900 
     70 H70       -79.9746   24.7894  -72.9393 H         1 UNK         0.2959 
     71 H71       -82.1714   23.7336  -71.3542 H         1 UNK         0.1079 
     72 H72       -82.5291   26.0678  -70.6735 H         1 UNK         0.0837 
     73 H73       -80.8715   25.6001  -70.4805 H         1 UNK         0.0837 
     74 H74       -80.4455   27.9484  -70.0154 H         1 UNK         0.0685 
     75 H75       -80.4568   29.2721  -71.1486 H         1 UNK         0.0685 
     76 H76       -78.6299   26.0357  -70.5009 H         1 UNK         0.1434 
     77 H77       -74.8577   27.6347  -71.7605 H         1 UNK         0.1329 
     78 H78       -78.4025   30.0232  -72.0644 H         1 UNK         0.1335 
     79 H79       -74.8640   30.3020  -71.9534 H         1 UNK         0.0680 
     80 H80       -76.3173   30.9823  -72.6566 H         1 UNK         0.0680 
     81 H81       -75.1126   31.2462  -75.9592 H         1 UNK         0.1032 
     82 H82       -75.1386   32.0180  -74.4107 H         1 UNK         0.1032 
     83 H83       -73.0082   32.3162  -75.6842 H         1 UNK         0.0461 
     84 H84       -71.0277   30.3145  -73.8117 H         1 UNK         0.3453 
     85 H85       -71.0223   31.3248  -72.3880 H         1 UNK         0.3453 
     86 H86       -72.9194   29.4028  -75.6771 H         1 UNK         0.2984 
     87 H87       -71.4212   28.8316  -77.9646 H         1 UNK         0.0554 
     88 H88       -68.9866   28.2510  -77.9585 H         1 UNK         0.0847 
     89 H89       -68.6905   29.4831  -76.7325 H         1 UNK         0.0847 
     90 H90       -69.2438   29.9458  -78.3353 H         1 UNK         0.0847 
     91 H91       -71.4815   27.1565  -76.5189 H         1 UNK         0.3141 
     92 H92       -69.9452   26.3194  -73.5529 H         1 UNK         0.0743 
     93 H93       -71.5982   27.6517  -72.3280 H         1 UNK         0.0784 
     94 H94       -72.8492   27.2987  -73.5028 H         1 UNK         0.0784 
     95 H95       -72.2051   26.0115  -72.4782 H         1 UNK         0.0784 
     96 H96       -72.2688   25.4391  -75.1432 H         1 UNK         0.3213 
     97 H97       -70.3580   23.4776  -77.3414 H         1 UNK         0.0855 
     98 H98       -71.7562   22.2614  -74.8941 H         1 UNK         0.0814 
     99 H99       -70.1005   21.9401  -75.3883 H         1 UNK         0.0814 
    100 H100      -71.4278   21.4321  -76.4171 H         1 UNK         0.0814 
    101 H101      -73.1334   23.3582  -76.6409 H         1 UNK         0.3105 
    102 H102      -74.2293   26.1758  -78.4666 H         1 UNK         0.0547 
    103 H103      -74.5312   23.1979  -79.1370 H         1 UNK         0.0837 
    104 H104      -75.6009   24.4981  -79.6641 H         1 UNK         0.0837 
    105 H105      -73.9449   24.4345  -80.2398 H         1 UNK         0.0837 
    106 H106      -75.7609   24.2267  -77.1685 H         1 UNK         0.3020 
    107 H107      -76.4897   24.2950  -75.0825 H         1 UNK         0.1245 
    108 H108      -74.6497   25.6902  -73.0710 H         1 UNK         0.0781 
    109 H109      -74.4404   24.0593  -73.6339 H         1 UNK         0.0781 
    110 H110      -74.9536   25.4726  -70.6151 H         1 UNK         0.0836 
    111 H111      -76.4431   24.9418  -69.8763 H         1 UNK         0.0836 
    112 H112      -76.4412   27.1469  -74.1956 H         1 UNK         0.3022 
    113 H113      -78.5313   28.3055  -74.3977 H         1 UNK         0.0747 
    114 H114      -78.2226   29.7376  -76.3857 H         1 UNK         0.0793 
    115 H115      -76.8281   28.6740  -76.3317 H         1 UNK         0.0793 
    116 H116      -78.1282   28.3385  -77.4544 H         1 UNK         0.0793 
    117 H117      -80.2421   26.7920  -76.1455 H         1 UNK         0.3047 
    118 H118      -83.1032   28.8599  -75.5013 H         1 UNK         0.0822 
    119 H119      -82.2413   29.4895  -77.8156 H         1 UNK         0.0807 
    120 H120      -83.5734   28.3566  -77.8859 H         1 UNK         0.0807 
    121 H121      -81.9233   27.7904  -78.1368 H         1 UNK         0.0807 
    122 H122      -81.9307   26.3580  -75.1850 H         1 UNK         0.2946 
    123 H123      -84.8414   24.4771  -75.0208 H         1 UNK         0.1144 
    124 H124      -84.2718   23.9202  -77.3808 H         1 UNK         0.0793 
    125 H125      -83.6067   22.7191  -76.2866 H         1 UNK         0.0793 
    126 H126      -82.5554   23.9425  -77.0006 H         1 UNK         0.0793 
    127 H127      -81.9460   24.1120  -74.6099 H         1 UNK         0.2896 
@<TRIPOS>BOND
     1    1    2 1    
     2    1   67 1    
     3    1   68 1    
     4    1   69 1    
     5    2    3 2    
     6    2    4 am   BACKBONE|DICT|INTERRES
     7    4    5 1    
     8    4   70 1    
     9    5    6 1    
    10    5   65 1    
    11    5   71 1    
    12    6    7 1    
    13    6   72 1    
    14    6   73 1    
    15    7    8 1    
    16    8    9 1    
    17    8   74 1    
    18    8   75 1    
    19    9   10 ar   
    20    9   14 ar   
    21   10   11 ar   
    22   10   76 1    
    23   11   12 ar   
    24   11   48 1    
    25   12   13 ar   
    26   12   77 1    
    27   13   14 ar   
    28   13   15 1    
    29   14   78 1    
    30   15   16 1    
    31   15   79 1    
    32   15   80 1    
    33   16   17 1    
    34   17   18 1    
    35   17   81 1    
    36   17   82 1    
    37   18   19 1    
    38   18   22 1    
    39   18   83 1    
    40   19   20 am   BACKBONE|DICT|INTERRES
    41   19   21 2    
    42   20   84 1    
    43   20   85 1    
    44   22   23 am   BACKBONE|DICT|INTERRES
    45   22   86 1    
    46   23   24 2    
    47   23   25 1    
    48   25   26 1    
    49   25   27 1    
    50   25   87 1    
    51   26   88 1    
    52   26   89 1    
    53   26   90 1    
    54   27   28 am   BACKBONE|DICT|INTERRES
    55   27   91 1    
    56   28   29 2    
    57   28   30 1    
    58   30   31 1    
    59   30   32 1    
    60   30   92 1    
    61   31   93 1    
    62   31   94 1    
    63   31   95 1    
    64   32   33 am   BACKBONE|DICT|INTERRES
    65   32   96 1    
    66   33   34 2    
    67   33   35 1    
    68   35   36 1    
    69   35   37 1    
    70   35   97 1    
    71   36   98 1    
    72   36   99 1    
    73   36  100 1    
    74   37   38 am   BACKBONE|DICT|INTERRES
    75   37  101 1    
    76   38   39 2    
    77   38   40 1    
    78   40   41 1    
    79   40   42 1    
    80   40  102 1    
    81   41  103 1    
    82   41  104 1    
    83   41  105 1    
    84   42   43 am   BACKBONE|DICT|INTERRES
    85   42  106 1    
    86   43   44 2    
    87   43   45 1    
    88   45   46 1    
    89   45   49 1    
    90   45  107 1    
    91   46   47 1    
    92   46  108 1    
    93   46  109 1    
    94   47   48 1    
    95   48  110 1    
    96   48  111 1    
    97   49   50 am   BACKBONE|DICT|INTERRES
    98   49  112 1    
    99   50   51 2    
   100   50   52 1    
   101   52   53 1    
   102   52   54 1    
   103   52  113 1    
   104   53  114 1    
   105   53  115 1    
   106   53  116 1    
   107   54   55 am   BACKBONE|DICT|INTERRES
   108   54  117 1    
   109   55   56 2    
   110   55   57 1    
   111   57   58 1    
   112   57   59 1    
   113   57  118 1    
   114   58  119 1    
   115   58  120 1    
   116   58  121 1    
   117   59   60 am   BACKBONE|DICT|INTERRES
   118   59  122 1    
   119   60   61 2    
   120   60   62 1    
   121   62   63 1    
   122   62   64 1    
   123   62  123 1    
   124   63  124 1    
   125   63  125 1    
   126   63  126 1    
   127   64   65 am   BACKBONE|DICT|INTERRES
   128   64  127 1    
   129   65   66 2    
@<TRIPOS>SUBSTRUCTURE
     1 UNK         1 GROUP             0       ****    0 ROOT    
