@<TRIPOS>MOLECULE
3R135
127   129    1
SMALL
USER_CHARGES


@<TRIPOS>ATOM
      1 CA        -76.9088   25.6843  -72.2363 C.3       0 UNK        -0.1998 
      2 C         -78.2907   25.0898  -72.0254 C.2       0 UNK         0.4909 
      3 O         -78.4101   23.8714  -71.8993 O.2       0 UNK        -0.5240 
      4 N         -79.3320   25.9335  -72.0071 N.am      1 UNK        -0.4739 
      5 CA        -80.7433   25.5771  -71.8005 C.3       1 UNK         0.0864 
      6 C6        -81.6320   26.8380  -71.6197 C.3       11 UNK        -0.0881 
      7 S7        -81.0567   27.9495  -70.2915 S.3       11 UNK        -0.2682 
      8 C8        -80.7376   29.5097  -71.1930 C.3       11 UNK         0.0289 
      9 C9        -79.3744   29.5741  -71.8812 C.ar      11 UNK        -0.0687 
     10 C10       -79.2594   30.1059  -73.1729 C.ar      11 UNK        -0.0823 
     11 C11       -78.0088   30.2595  -73.7881 C.ar      11 UNK        -0.0830 
     12 C12       -76.8660   29.8472  -73.0896 C.ar      11 UNK        -0.1021 
     13 C13       -76.9620   29.3296  -71.7960 C.ar      11 UNK        -0.0753 
     14 C14       -78.2154   29.1951  -71.1969 C.ar      11 UNK        -0.0933 
     15 C15       -75.7014   28.9444  -71.0406 C.3       11 UNK         0.0166 
     16 S16       -75.0176   30.3929  -70.1812 S.3       11 UNK        -0.2615 
     17 C17       -73.2771   29.9024  -69.9383 C.3       11 UNK        -0.0865 
     18 CA        -72.3307   30.6245  -70.9429 C.3       10 UNK         0.0862 
     19 C         -70.8258   30.5475  -70.5337 C.2       10 UNK         0.5551 
     20 N         -69.8881   30.6021  -71.4719 N.am      10 UNK        -0.7319 
     21 O         -70.4978   30.4724  -69.3518 O.2       10 UNK        -0.5018 
     22 N         -72.6174   30.2668  -72.3473 N.am      10 UNK        -0.4509 
     23 C         -72.4051   29.0700  -72.9108 C.2       10 UNK         0.4899 
     24 O         -71.9055   28.1102  -72.3188 O.2       10 UNK        -0.4839 
     25 CA        -72.8212   28.9343  -74.3859 C.3       9 UNK         0.0222 
     26 CB        -71.9845   29.8562  -75.2912 C.3       9 UNK        -0.1966 
     27 N         -72.6467   27.5537  -74.8377 N.am      9 UNK        -0.4218 
     28 C         -73.5971   26.6140  -74.8354 C.2       9 UNK         0.5020 
     29 O         -74.7837   26.8264  -74.5762 O.2       9 UNK        -0.5274 
     30 CA        -73.1380   25.1955  -75.1840 C.3       8 UNK         0.0270 
     31 CB        -73.3918   24.2211  -74.0217 C.3       8 UNK        -0.1976 
     32 N         -73.8396   24.7413  -76.3827 N.am      8 UNK        -0.4313 
     33 C         -73.2708   24.0336  -77.3680 C.2       8 UNK         0.5041 
     34 O         -72.0982   23.6556  -77.3428 O.2       8 UNK        -0.5577 
     35 CA        -74.1176   23.7041  -78.6063 C.3       7 UNK         0.0284 
     36 CB        -74.9589   22.4331  -78.4033 C.3       7 UNK        -0.1958 
     37 N         -74.9871   24.8182  -78.9888 N.am      7 UNK        -0.4454 
     38 C         -74.9416   25.4398  -80.1757 C.2       7 UNK         0.5089 
     39 O         -74.1767   25.1284  -81.0897 O.2       7 UNK        -0.5125 
     40 CA        -75.9136   26.6116  -80.3920 C.3       6 UNK         0.0408 
     41 CB        -77.2540   26.1014  -80.9437 C.3       6 UNK        -0.1791 
     42 N         -76.1582   27.3850  -79.1763 N.am      6 UNK        -0.4762 
     43 C         -75.2711   28.1682  -78.5513 C.2       6 UNK         0.5007 
     44 O         -74.1308   28.3656  -78.9716 O.2       6 UNK        -0.5032 
     45 CA        -75.7013   28.8218  -77.2205 C.3       5 UNK         0.0783 
     46 C46       -76.2466   30.2612  -77.4153 C.3       11 UNK        -0.0857 
     47 S47       -76.2632   31.2081  -75.8505 S.3       11 UNK        -0.2512 
     48 C48       -77.9446   30.9115  -75.1787 C.3       11 UNK         0.0225 
     49 N         -76.5824   27.9839  -76.3977 N.am      5 UNK        -0.4615 
     50 C         -77.8533   27.6323  -76.6256 C.2       4 UNK         0.5053 
     51 O         -78.4590   27.8501  -77.6765 O.2       4 UNK        -0.5105 
     52 CA        -78.5776   26.9479  -75.4608 C.3       4 UNK         0.0263 
     53 CB        -80.0142   27.4855  -75.3466 C.3       4 UNK        -0.1981 
     54 N         -78.6198   25.4807  -75.4924 N.am      4 UNK        -0.4224 
     55 C         -77.6829   24.6090  -75.9017 C.2       3 UNK         0.4895 
     56 O         -76.6449   24.9231  -76.4881 O.2       3 UNK        -0.5091 
     57 CA        -77.9257   23.1205  -75.5730 C.3       3 UNK         0.0250 
     58 CB        -76.6894   22.4863  -74.9073 C.3       3 UNK        -0.1996 
     59 N         -79.0655   22.9174  -74.6731 N.am      3 UNK        -0.4254 
     60 C         -80.2871   22.4988  -75.0308 C.2       2 UNK         0.5004 
     61 O         -80.6065   22.2149  -76.1850 O.2       2 UNK        -0.5226 
     62 CA        -81.3370   22.3983  -73.9063 C.3       2 UNK         0.0269 
     63 CB        -81.3689   20.9757  -73.3251 C.3       2 UNK        -0.1926 
     64 N         -81.0947   23.3591  -72.8232 N.am      2 UNK        -0.4687 
     65 C         -81.2722   24.6812  -72.9450 C.2       1 UNK         0.5165 
     66 O         -81.7762   25.1944  -73.9442 O.2       1 UNK        -0.5079 
     67 H67       -76.9546   26.7323  -72.5201 H         1 UNK         0.0900 
     68 H68       -76.3140   25.5971  -71.3279 H         1 UNK         0.0900 
     69 H69       -76.3932   25.1562  -73.0354 H         1 UNK         0.0900 
     70 H70       -79.1609   26.9254  -72.0979 H         1 UNK         0.2959 
     71 H71       -80.8015   24.9991  -70.8755 H         1 UNK         0.1079 
     72 H72       -81.7093   27.4065  -72.5463 H         1 UNK         0.0837 
     73 H73       -82.6532   26.5389  -71.3758 H         1 UNK         0.0837 
     74 H74       -80.7861   30.3293  -70.4751 H         1 UNK         0.0685 
     75 H75       -81.5451   29.6866  -71.9051 H         1 UNK         0.0685 
     76 H76       -80.1492   30.4334  -73.6935 H         1 UNK         0.1434 
     77 H77       -75.8846   29.9530  -73.5251 H         1 UNK         0.1329 
     78 H78       -78.2855   28.8178  -70.1858 H         1 UNK         0.1335 
     79 H79       -74.9711   28.5329  -71.7374 H         1 UNK         0.0680 
     80 H80       -75.9112   28.1580  -70.3140 H         1 UNK         0.0680 
     81 H81       -73.0208   30.1644  -68.9103 H         1 UNK         0.1032 
     82 H82       -73.1698   28.8186  -70.0042 H         1 UNK         0.1032 
     83 H83       -72.5553   31.6897  -70.8744 H         1 UNK         0.0461 
     84 H84       -68.9173   30.5634  -71.2038 H         1 UNK         0.3453 
     85 H85       -70.1427   30.6757  -72.4434 H         1 UNK         0.3453 
     86 H86       -73.0189   31.0054  -72.9065 H         1 UNK         0.2984 
     87 H87       -73.8699   29.2236  -74.4674 H         1 UNK         0.0554 
     88 H88       -72.2554   29.7315  -76.3400 H         1 UNK         0.0847 
     89 H89       -70.9163   29.6563  -75.1974 H         1 UNK         0.0847 
     90 H90       -72.1433   30.9071  -75.0467 H         1 UNK         0.0847 
     91 H91       -71.6939   27.2679  -75.0130 H         1 UNK         0.3141 
     92 H92       -72.0622   25.2225  -75.3712 H         1 UNK         0.0743 
     93 H93       -72.8867   24.5558  -73.1147 H         1 UNK         0.0784 
     94 H94       -74.4524   24.1367  -73.7922 H         1 UNK         0.0784 
     95 H95       -73.0198   23.2231  -74.2538 H         1 UNK         0.0784 
     96 H96       -74.8279   24.9875  -76.4336 H         1 UNK         0.3213 
     97 H97       -73.4041   23.4909  -79.4053 H         1 UNK         0.0855 
     98 H98       -75.8108   22.6083  -77.7497 H         1 UNK         0.0814 
     99 H99       -74.3645   21.6282  -77.9686 H         1 UNK         0.0814 
    100 H100      -75.3480   22.0699  -79.3545 H         1 UNK         0.0814 
    101 H101      -75.6529   25.1365  -78.2927 H         1 UNK         0.3105 
    102 H102      -75.4711   27.2804  -81.1333 H         1 UNK         0.0547 
    103 H103      -77.7598   25.4457  -80.2336 H         1 UNK         0.0837 
    104 H104      -77.9274   26.9266  -81.1757 H         1 UNK         0.0837 
    105 H105      -77.1073   25.5350  -81.8644 H         1 UNK         0.0837 
    106 H106      -77.0876   27.3290  -78.7643 H         1 UNK         0.3020 
    107 H107      -74.7768   28.9037  -76.6489 H         1 UNK         0.1245 
    108 H108      -77.2389   30.2589  -77.8687 H         1 UNK         0.0781 
    109 H109      -75.6080   30.8153  -78.1060 H         1 UNK         0.0781 
    110 H110      -78.4458   31.8789  -75.1235 H         1 UNK         0.0836 
    111 H111      -78.5259   30.3195  -75.8834 H         1 UNK         0.0836 
    112 H112      -76.1351   27.6286  -75.5537 H         1 UNK         0.3022 
    113 H113      -78.0525   27.2339  -74.5490 H         1 UNK         0.0747 
    114 H114      -80.0662   28.5575  -75.5355 H         1 UNK         0.0793 
    115 H115      -80.4062   27.3311  -74.3469 H         1 UNK         0.0793 
    116 H116      -80.6864   27.0025  -76.0568 H         1 UNK         0.0793 
    117 H117      -79.4513   25.0764  -75.0865 H         1 UNK         0.3047 
    118 H118      -78.1001   22.6138  -76.5243 H         1 UNK         0.0822 
    119 H119      -76.5266   22.8801  -73.9042 H         1 UNK         0.0807 
    120 H120      -75.7765   22.6639  -75.4742 H         1 UNK         0.0807 
    121 H121      -76.8051   21.4059  -74.8203 H         1 UNK         0.0807 
    122 H122      -78.9010   23.1259  -73.6918 H         1 UNK         0.2946 
    123 H123      -82.3131   22.6118  -74.3488 H         1 UNK         0.1144 
    124 H124      -81.5681   20.2400  -74.1057 H         1 UNK         0.0793 
    125 H125      -82.1534   20.8711  -72.5755 H         1 UNK         0.0793 
    126 H126      -80.4198   20.7077  -72.8588 H         1 UNK         0.0793 
    127 H127      -80.6072   23.0141  -72.0063 H         1 UNK         0.2896 
@<TRIPOS>BOND
     1    1    2 1    
     2    1   67 1    
     3    1   68 1    
     4    1   69 1    
     5    2    3 2    
     6    2    4 am   BACKBONE|DICT|INTERRES
     7    4    5 1    
     8    4   70 1    
     9    5    6 1    
    10    5   65 1    
    11    5   71 1    
    12    6    7 1    
    13    6   72 1    
    14    6   73 1    
    15    7    8 1    
    16    8    9 1    
    17    8   74 1    
    18    8   75 1    
    19    9   10 ar   
    20    9   14 ar   
    21   10   11 ar   
    22   10   76 1    
    23   11   12 ar   
    24   11   48 1    
    25   12   13 ar   
    26   12   77 1    
    27   13   14 ar   
    28   13   15 1    
    29   14   78 1    
    30   15   16 1    
    31   15   79 1    
    32   15   80 1    
    33   16   17 1    
    34   17   18 1    
    35   17   81 1    
    36   17   82 1    
    37   18   19 1    
    38   18   22 1    
    39   18   83 1    
    40   19   20 am   BACKBONE|DICT|INTERRES
    41   19   21 2    
    42   20   84 1    
    43   20   85 1    
    44   22   23 am   BACKBONE|DICT|INTERRES
    45   22   86 1    
    46   23   24 2    
    47   23   25 1    
    48   25   26 1    
    49   25   27 1    
    50   25   87 1    
    51   26   88 1    
    52   26   89 1    
    53   26   90 1    
    54   27   28 am   BACKBONE|DICT|INTERRES
    55   27   91 1    
    56   28   29 2    
    57   28   30 1    
    58   30   31 1    
    59   30   32 1    
    60   30   92 1    
    61   31   93 1    
    62   31   94 1    
    63   31   95 1    
    64   32   33 am   BACKBONE|DICT|INTERRES
    65   32   96 1    
    66   33   34 2    
    67   33   35 1    
    68   35   36 1    
    69   35   37 1    
    70   35   97 1    
    71   36   98 1    
    72   36   99 1    
    73   36  100 1    
    74   37   38 am   BACKBONE|DICT|INTERRES
    75   37  101 1    
    76   38   39 2    
    77   38   40 1    
    78   40   41 1    
    79   40   42 1    
    80   40  102 1    
    81   41  103 1    
    82   41  104 1    
    83   41  105 1    
    84   42   43 am   BACKBONE|DICT|INTERRES
    85   42  106 1    
    86   43   44 2    
    87   43   45 1    
    88   45   46 1    
    89   45   49 1    
    90   45  107 1    
    91   46   47 1    
    92   46  108 1    
    93   46  109 1    
    94   47   48 1    
    95   48  110 1    
    96   48  111 1    
    97   49   50 am   BACKBONE|DICT|INTERRES
    98   49  112 1    
    99   50   51 2    
   100   50   52 1    
   101   52   53 1    
   102   52   54 1    
   103   52  113 1    
   104   53  114 1    
   105   53  115 1    
   106   53  116 1    
   107   54   55 am   BACKBONE|DICT|INTERRES
   108   54  117 1    
   109   55   56 2    
   110   55   57 1    
   111   57   58 1    
   112   57   59 1    
   113   57  118 1    
   114   58  119 1    
   115   58  120 1    
   116   58  121 1    
   117   59   60 am   BACKBONE|DICT|INTERRES
   118   59  122 1    
   119   60   61 2    
   120   60   62 1    
   121   62   63 1    
   122   62   64 1    
   123   62  123 1    
   124   63  124 1    
   125   63  125 1    
   126   63  126 1    
   127   64   65 am   BACKBONE|DICT|INTERRES
   128   64  127 1    
   129   65   66 2    
@<TRIPOS>SUBSTRUCTURE
     1 UNK         1 GROUP             0       ****    0 ROOT    
