@<TRIPOS>MOLECULE
3R135
127   129    1
SMALL
USER_CHARGES


@<TRIPOS>ATOM
      1 CA        -77.4095   29.9464  -77.5516 C.3       0 UNK        -0.1998 
      2 C         -77.4827   28.7794  -76.5790 C.2       0 UNK         0.4909 
      3 O         -76.5931   27.9268  -76.5643 O.2       0 UNK        -0.5240 
      4 N         -78.5632   28.7410  -75.7881 N.am      1 UNK        -0.4739 
      5 CA        -78.9110   27.6837  -74.8319 C.3       1 UNK         0.0864 
      6 C6        -80.1611   28.1158  -74.0206 C.3       11 UNK        -0.0881 
      7 S7        -80.6419   26.9832  -72.6736 S.3       11 UNK        -0.2682 
      8 C8        -80.1616   27.9450  -71.1985 C.3       11 UNK         0.0289 
      9 C9        -78.6515   28.0774  -71.0271 C.ar      11 UNK        -0.0687 
     10 C10       -77.8232   26.9622  -71.1734 C.ar      11 UNK        -0.0823 
     11 C11       -76.4453   27.0620  -70.9827 C.ar      11 UNK        -0.0830 
     12 C12       -75.8936   28.2877  -70.6022 C.ar      11 UNK        -0.1021 
     13 C13       -76.7036   29.4186  -70.4609 C.ar      11 UNK        -0.0753 
     14 C14       -78.0822   29.3074  -70.6801 C.ar      11 UNK        -0.0933 
     15 C15       -76.0984   30.7522  -70.0415 C.3       11 UNK         0.0166 
     16 S16       -75.1609   31.5454  -71.3903 S.3       11 UNK        -0.2615 
     17 C17       -73.4260   31.1208  -70.9768 C.3       11 UNK        -0.0865 
     18 CA        -72.6022   30.5419  -72.1586 C.3       10 UNK         0.0862 
     19 C         -72.9977   29.0723  -72.4768 C.2       10 UNK         0.5551 
     20 N         -73.7300   28.7987  -73.5490 N.am      10 UNK        -0.7319 
     21 O         -72.6268   28.1682  -71.7329 O.2       10 UNK        -0.5018 
     22 N         -72.6154   31.4355  -73.3244 N.am      10 UNK        -0.4509 
     23 C         -71.6914   31.4252  -74.2908 C.2       10 UNK         0.4899 
     24 O         -70.6426   30.7800  -74.2409 O.2       10 UNK        -0.4839 
     25 CA        -72.0157   32.2518  -75.5470 C.3       9 UNK         0.0222 
     26 CB        -70.8170   33.1108  -75.9856 C.3       9 UNK        -0.1966 
     27 N         -72.4160   31.3750  -76.6492 N.am      9 UNK        -0.4218 
     28 C         -73.5119   30.6042  -76.6532 C.2       9 UNK         0.5020 
     29 O         -74.3546   30.6136  -75.7536 O.2       9 UNK        -0.5274 
     30 CA        -73.7259   29.6630  -77.8489 C.3       8 UNK         0.0270 
     31 CB        -72.8265   29.9442  -79.0768 C.3       8 UNK        -0.1976 
     32 N         -73.6596   28.2651  -77.4105 N.am      8 UNK        -0.4313 
     33 C         -72.5670   27.5931  -77.0166 C.2       8 UNK         0.5041 
     34 O         -71.4321   28.0722  -77.0210 O.2       8 UNK        -0.5577 
     35 CA        -72.7429   26.1354  -76.5512 C.3       7 UNK         0.0284 
     36 CB        -72.1246   25.8996  -75.1615 C.3       7 UNK        -0.1958 
     37 N         -74.1315   25.6697  -76.5381 N.am      7 UNK        -0.4454 
     38 C         -74.7693   25.1244  -77.5828 C.2       7 UNK         0.5089 
     39 O         -74.2942   25.0769  -78.7187 O.2       7 UNK        -0.5125 
     40 CA        -76.1592   24.5099  -77.3010 C.3       6 UNK         0.0408 
     41 CB        -76.5377   23.4152  -78.3212 C.3       6 UNK        -0.1791 
     42 N         -76.3087   24.0081  -75.9258 N.am      6 UNK        -0.4762 
     43 C         -75.5488   23.0804  -75.3200 C.2       6 UNK         0.5007 
     44 O         -74.6648   22.4367  -75.8872 O.2       6 UNK        -0.5032 
     45 CA        -75.7754   22.8608  -73.8110 C.3       5 UNK         0.0783 
     46 C46       -74.8338   23.7627  -72.9675 C.3       11 UNK        -0.0857 
     47 S47       -75.3028   25.5318  -72.9664 S.3       11 UNK        -0.2512 
     48 C48       -75.5718   25.8363  -71.1910 C.3       11 UNK         0.0225 
     49 N         -77.1768   22.9756  -73.3923 N.am      5 UNK        -0.4615 
     50 C         -78.1519   22.1207  -73.7265 C.2       4 UNK         0.5053 
     51 O         -77.9993   21.1814  -74.5076 O.2       4 UNK        -0.5105 
     52 CA        -79.5153   22.3067  -73.0464 C.3       4 UNK         0.0263 
     53 CB        -79.4519   23.0209  -71.6819 C.3       4 UNK        -0.1981 
     54 N         -80.4127   23.0353  -73.9362 N.am      4 UNK        -0.4224 
     55 C         -81.7000   22.7242  -74.1460 C.2       3 UNK         0.4895 
     56 O         -82.2649   21.7675  -73.6133 O.2       3 UNK        -0.5091 
     57 CA        -82.5211   23.6268  -75.0890 C.3       3 UNK         0.0250 
     58 CB        -83.5213   24.4744  -74.2848 C.3       3 UNK        -0.1996 
     59 N         -81.7031   24.5189  -75.9107 N.am      3 UNK        -0.4254 
     60 C         -80.9438   24.1323  -76.9443 C.2       2 UNK         0.5004 
     61 O         -80.9236   22.9838  -77.3867 O.2       2 UNK        -0.5226 
     62 CA        -80.0341   25.1992  -77.5797 C.3       2 UNK         0.0269 
     63 CB        -80.6276   25.6955  -78.9075 C.3       2 UNK        -0.1926 
     64 N         -79.7485   26.3565  -76.7215 N.am      2 UNK        -0.4687 
     65 C         -79.1245   26.3240  -75.5326 C.2       1 UNK         0.5165 
     66 O         -78.7309   25.2856  -74.9978 O.2       1 UNK        -0.5079 
     67 H67       -77.0790   29.6026  -78.5311 H         1 UNK         0.0900 
     68 H68       -76.7095   30.6965  -77.1864 H         1 UNK         0.0900 
     69 H69       -78.3792   30.4268  -77.6802 H         1 UNK         0.0900 
     70 H70       -79.2317   29.4951  -75.8560 H         1 UNK         0.2959 
     71 H71       -78.0676   27.5678  -74.1468 H         1 UNK         0.1079 
     72 H72       -81.0233   28.2295  -74.6805 H         1 UNK         0.0837 
     73 H73       -79.9908   29.1056  -73.5936 H         1 UNK         0.0837 
     74 H74       -80.5644   27.4473  -70.3157 H         1 UNK         0.0685 
     75 H75       -80.6378   28.9258  -71.2421 H         1 UNK         0.0685 
     76 H76       -78.2510   26.0115  -71.4485 H         1 UNK         0.1434 
     77 H77       -74.8323   28.3648  -70.4216 H         1 UNK         0.1329 
     78 H78       -78.7153   30.1759  -70.5603 H         1 UNK         0.1335 
     79 H79       -76.8881   31.4387  -69.7324 H         1 UNK         0.0680 
     80 H80       -75.4687   30.6145  -69.1617 H         1 UNK         0.0680 
     81 H81       -73.3937   30.4358  -70.1279 H         1 UNK         0.1032 
     82 H82       -72.9448   32.0335  -70.6224 H         1 UNK         0.1032 
     83 H83       -71.5684   30.4931  -71.8099 H         1 UNK         0.0461 
     84 H84       -74.0247   27.8494  -73.7033 H         1 UNK         0.3453 
     85 H85       -74.0231   29.5341  -74.1850 H         1 UNK         0.3453 
     86 H86       -73.4749   31.9459  -73.4711 H         1 UNK         0.2984 
     87 H87       -72.8480   32.9235  -75.3257 H         1 UNK         0.0554 
     88 H88       -71.0705   33.7415  -76.8379 H         1 UNK         0.0847 
     89 H89       -69.9579   32.4991  -76.2643 H         1 UNK         0.0847 
     90 H90       -70.4970   33.7716  -75.1787 H         1 UNK         0.0847 
     91 H91       -71.7553   31.2620  -77.4040 H         1 UNK         0.3141 
     92 H92       -74.7491   29.8225  -78.1800 H         1 UNK         0.0743 
     93 H93       -72.9744   30.9613  -79.4423 H         1 UNK         0.0784 
     94 H94       -71.7642   29.8239  -78.8652 H         1 UNK         0.0784 
     95 H95       -73.0730   29.2726  -79.8992 H         1 UNK         0.0784 
     96 H96       -74.5603   27.8169  -77.2738 H         1 UNK         0.3213 
     97 H97       -72.1805   25.5238  -77.2603 H         1 UNK         0.0855 
     98 H98       -71.0808   26.2151  -75.1340 H         1 UNK         0.0814 
     99 H99       -72.1457   24.8427  -74.8961 H         1 UNK         0.0814 
    100 H100      -72.6486   26.4487  -74.3815 H         1 UNK         0.0814 
    101 H101      -74.6176   25.6966  -75.6523 H         1 UNK         0.3105 
    102 H102      -76.8712   25.3278  -77.4060 H         1 UNK         0.0547 
    103 H103      -76.6219   23.8304  -79.3261 H         1 UNK         0.0837 
    104 H104      -75.7878   22.6244  -78.3596 H         1 UNK         0.0837 
    105 H105      -77.4937   22.9519  -78.0785 H         1 UNK         0.0837 
    106 H106      -77.0341   24.4608  -75.3740 H         1 UNK         0.3020 
    107 H107      -75.4801   21.8260  -73.6202 H         1 UNK         0.1245 
    108 H108      -73.8034   23.6806  -73.3190 H         1 UNK         0.0781 
    109 H109      -74.8110   23.3932  -71.9415 H         1 UNK         0.0781 
    110 H110      -74.6063   25.9576  -70.6970 H         1 UNK         0.0836 
    111 H111      -76.0533   24.9730  -70.7291 H         1 UNK         0.0836 
    112 H112      -77.3947   23.7521  -72.7865 H         1 UNK         0.3022 
    113 H113      -79.8968   21.2980  -72.8731 H         1 UNK         0.0747 
    114 H114      -80.4076   22.9469  -71.1626 H         1 UNK         0.0793 
    115 H115      -78.6981   22.5759  -71.0308 H         1 UNK         0.0793 
    116 H116      -79.2259   24.0794  -71.7913 H         1 UNK         0.0793 
    117 H117      -80.0004   23.8220  -74.4293 H         1 UNK         0.3047 
    118 H118      -83.0855   22.9707  -75.7552 H         1 UNK         0.0822 
    119 H119      -84.1811   23.8409  -73.6901 H         1 UNK         0.0807 
    120 H120      -84.1547   25.0719  -74.9406 H         1 UNK         0.0807 
    121 H121      -83.0145   25.1518  -73.5963 H         1 UNK         0.0807 
    122 H122      -81.6547   25.4849  -75.6220 H         1 UNK         0.2946 
    123 H123      -79.0869   24.7063  -77.7951 H         1 UNK         0.1144 
    124 H124      -79.9420   26.3693  -79.4219 H         1 UNK         0.0793 
    125 H125      -81.5700   26.2234  -78.7562 H         1 UNK         0.0793 
    126 H126      -80.8258   24.8622  -79.5834 H         1 UNK         0.0793 
    127 H127      -80.0221   27.2593  -77.0819 H         1 UNK         0.2896 
@<TRIPOS>BOND
     1    1    2 1    
     2    1   67 1    
     3    1   68 1    
     4    1   69 1    
     5    2    3 2    
     6    2    4 am   BACKBONE|DICT|INTERRES
     7    4    5 1    
     8    4   70 1    
     9    5    6 1    
    10    5   65 1    
    11    5   71 1    
    12    6    7 1    
    13    6   72 1    
    14    6   73 1    
    15    7    8 1    
    16    8    9 1    
    17    8   74 1    
    18    8   75 1    
    19    9   10 ar   
    20    9   14 ar   
    21   10   11 ar   
    22   10   76 1    
    23   11   12 ar   
    24   11   48 1    
    25   12   13 ar   
    26   12   77 1    
    27   13   14 ar   
    28   13   15 1    
    29   14   78 1    
    30   15   16 1    
    31   15   79 1    
    32   15   80 1    
    33   16   17 1    
    34   17   18 1    
    35   17   81 1    
    36   17   82 1    
    37   18   19 1    
    38   18   22 1    
    39   18   83 1    
    40   19   20 am   BACKBONE|DICT|INTERRES
    41   19   21 2    
    42   20   84 1    
    43   20   85 1    
    44   22   23 am   BACKBONE|DICT|INTERRES
    45   22   86 1    
    46   23   24 2    
    47   23   25 1    
    48   25   26 1    
    49   25   27 1    
    50   25   87 1    
    51   26   88 1    
    52   26   89 1    
    53   26   90 1    
    54   27   28 am   BACKBONE|DICT|INTERRES
    55   27   91 1    
    56   28   29 2    
    57   28   30 1    
    58   30   31 1    
    59   30   32 1    
    60   30   92 1    
    61   31   93 1    
    62   31   94 1    
    63   31   95 1    
    64   32   33 am   BACKBONE|DICT|INTERRES
    65   32   96 1    
    66   33   34 2    
    67   33   35 1    
    68   35   36 1    
    69   35   37 1    
    70   35   97 1    
    71   36   98 1    
    72   36   99 1    
    73   36  100 1    
    74   37   38 am   BACKBONE|DICT|INTERRES
    75   37  101 1    
    76   38   39 2    
    77   38   40 1    
    78   40   41 1    
    79   40   42 1    
    80   40  102 1    
    81   41  103 1    
    82   41  104 1    
    83   41  105 1    
    84   42   43 am   BACKBONE|DICT|INTERRES
    85   42  106 1    
    86   43   44 2    
    87   43   45 1    
    88   45   46 1    
    89   45   49 1    
    90   45  107 1    
    91   46   47 1    
    92   46  108 1    
    93   46  109 1    
    94   47   48 1    
    95   48  110 1    
    96   48  111 1    
    97   49   50 am   BACKBONE|DICT|INTERRES
    98   49  112 1    
    99   50   51 2    
   100   50   52 1    
   101   52   53 1    
   102   52   54 1    
   103   52  113 1    
   104   53  114 1    
   105   53  115 1    
   106   53  116 1    
   107   54   55 am   BACKBONE|DICT|INTERRES
   108   54  117 1    
   109   55   56 2    
   110   55   57 1    
   111   57   58 1    
   112   57   59 1    
   113   57  118 1    
   114   58  119 1    
   115   58  120 1    
   116   58  121 1    
   117   59   60 am   BACKBONE|DICT|INTERRES
   118   59  122 1    
   119   60   61 2    
   120   60   62 1    
   121   62   63 1    
   122   62   64 1    
   123   62  123 1    
   124   63  124 1    
   125   63  125 1    
   126   63  126 1    
   127   64   65 am   BACKBONE|DICT|INTERRES
   128   64  127 1    
   129   65   66 2    
@<TRIPOS>SUBSTRUCTURE
     1 UNK         1 GROUP             0       ****    0 ROOT    
