@<TRIPOS>MOLECULE
3R135
127   129    1
SMALL
USER_CHARGES


@<TRIPOS>ATOM
      1 CA        -78.2422   30.6808  -75.6172 C.3       0 UNK        -0.1998 
      2 C         -78.7059   29.5470  -74.7151 C.2       0 UNK         0.4909 
      3 O         -77.9457   28.6107  -74.4793 O.2       0 UNK        -0.5240 
      4 N         -79.9400   29.6313  -74.2012 N.am      1 UNK        -0.4739 
      5 CA        -80.5644   28.5866  -73.3846 C.3       1 UNK         0.0864 
      6 C6        -81.6911   29.1713  -72.4922 C.3       11 UNK        -0.0881 
      7 S7        -82.0680   28.1228  -71.0438 S.3       11 UNK        -0.2682 
      8 C8        -81.0425   28.8842  -69.7407 C.3       11 UNK         0.0289 
      9 C9        -79.5617   28.7545  -70.0615 C.ar      11 UNK        -0.0687 
     10 C10       -78.9185   27.5227  -69.9103 C.ar      11 UNK        -0.0823 
     11 C11       -77.5869   27.3665  -70.3037 C.ar      11 UNK        -0.0830 
     12 C12       -76.8934   28.4616  -70.8288 C.ar      11 UNK        -0.1021 
     13 C13       -77.5202   29.7045  -70.9704 C.ar      11 UNK        -0.0753 
     14 C14       -78.8527   29.8461  -70.5731 C.ar      11 UNK        -0.0933 
     15 C15       -76.8016   30.8683  -71.6432 C.3       11 UNK         0.0166 
     16 S16       -75.1188   31.1450  -71.0052 S.3       11 UNK        -0.2615 
     17 C17       -74.4623   32.2849  -72.2751 C.3       11 UNK        -0.0865 
     18 CA        -74.0521   31.5799  -73.5996 C.3       10 UNK         0.0862 
     19 C         -73.4895   32.6002  -74.6316 C.2       10 UNK         0.5551 
     20 N         -72.2693   32.4412  -75.1292 N.am      10 UNK        -0.7319 
     21 O         -74.1785   33.5520  -74.9902 O.2       10 UNK        -0.5018 
     22 N         -73.1958   30.4076  -73.3546 N.am      10 UNK        -0.4509 
     23 C         -73.1037   29.3456  -74.1620 C.2       10 UNK         0.4899 
     24 O         -73.6738   29.2531  -75.2510 O.2       10 UNK        -0.4839 
     25 CA        -72.2581   28.1832  -73.6207 C.3       9 UNK         0.0222 
     26 CB        -72.9830   27.4948  -72.4487 C.3       9 UNK        -0.1966 
     27 N         -72.0019   27.1851  -74.6586 N.am      9 UNK        -0.4218 
     28 C         -70.9242   27.1561  -75.4505 C.2       9 UNK         0.5020 
     29 O         -70.0175   27.9887  -75.3924 O.2       9 UNK        -0.5274 
     30 CA        -70.7990   25.9992  -76.4555 C.3       8 UNK         0.0270 
     31 CB        -70.1021   24.7910  -75.8025 C.3       8 UNK        -0.1976 
     32 N         -72.0725   25.5766  -77.0528 N.am      8 UNK        -0.4313 
     33 C         -72.1802   25.0728  -78.2931 C.2       8 UNK         0.5041 
     34 O         -71.2209   24.9393  -79.0556 O.2       8 UNK        -0.5577 
     35 CA        -73.5696   24.6185  -78.7889 C.3       7 UNK         0.0284 
     36 CB        -73.6984   23.0898  -78.6846 C.3       7 UNK        -0.1958 
     37 N         -74.6945   25.2299  -78.0846 N.am      7 UNK        -0.4454 
     38 C         -74.9924   26.5348  -78.0721 C.2       7 UNK         0.5089 
     39 O         -74.4152   27.3747  -78.7632 O.2       7 UNK        -0.5125 
     40 CA        -76.1054   26.9845  -77.1083 C.3       6 UNK         0.0408 
     41 CB        -77.4098   27.2329  -77.8818 C.3       6 UNK        -0.1791 
     42 N         -76.3844   26.0674  -75.9957 N.am      6 UNK        -0.4762 
     43 C         -75.5100   25.6163  -75.0834 C.2       6 UNK         0.5007 
     44 O         -74.2927   25.7862  -75.1471 O.2       6 UNK        -0.5032 
     45 CA        -76.0957   24.7940  -73.9266 C.3       5 UNK         0.0783 
     46 C46       -76.9508   25.6962  -73.0059 C.3       11 UNK        -0.0857 
     47 S47       -77.5012   24.8548  -71.4863 S.3       11 UNK        -0.2512 
     48 C48       -76.9120   26.0048  -70.1980 C.3       11 UNK         0.0225 
     49 N         -76.8427   23.6622  -74.4744 N.am      5 UNK        -0.4615 
     50 C         -76.2799   22.5296  -74.9166 C.2       4 UNK         0.5053 
     51 O         -75.0798   22.2772  -74.8114 O.2       4 UNK        -0.5105 
     52 CA        -77.2010   21.5028  -75.6010 C.3       4 UNK         0.0263 
     53 CB        -77.6863   20.4582  -74.5831 C.3       4 UNK        -0.1981 
     54 N         -78.3609   22.1096  -76.2582 N.am      4 UNK        -0.4224 
     55 C         -78.3046   22.8928  -77.3455 C.2       3 UNK         0.4895 
     56 O         -77.2679   23.1427  -77.9610 O.2       3 UNK        -0.5091 
     57 CA        -79.6283   23.5458  -77.7897 C.3       3 UNK         0.0250 
     58 CB        -80.3811   22.6279  -78.7659 C.3       3 UNK        -0.1996 
     59 N         -80.5152   23.9134  -76.6751 N.am      3 UNK        -0.4254 
     60 C         -80.1760   24.7531  -75.6867 C.2       2 UNK         0.5004 
     61 O         -79.0675   25.2831  -75.6051 O.2       2 UNK        -0.5226 
     62 CA        -81.2092   24.9783  -74.5696 C.3       2 UNK         0.0269 
     63 CB        -81.2030   23.7884  -73.5949 C.3       2 UNK        -0.1926 
     64 N         -80.9206   26.1981  -73.8111 N.am      2 UNK        -0.4687 
     65 C         -81.0684   27.4414  -74.2855 C.2       1 UNK         0.5165 
     66 O         -81.5956   27.7020  -75.3712 O.2       1 UNK        -0.5079 
     67 H67       -77.3399   31.1378  -75.2120 H         1 UNK         0.0900 
     68 H68       -79.0001   31.4571  -75.7205 H         1 UNK         0.0900 
     69 H69       -78.0108   30.2959  -76.6100 H         1 UNK         0.0900 
     70 H70       -80.5377   30.4022  -74.4620 H         1 UNK         0.2959 
     71 H71       -79.7844   28.1782  -72.7386 H         1 UNK         0.1079 
     72 H72       -81.4088   30.1598  -72.1269 H         1 UNK         0.0837 
     73 H73       -82.6072   29.3257  -73.0660 H         1 UNK         0.0837 
     74 H74       -81.2536   28.3933  -68.7896 H         1 UNK         0.0685 
     75 H75       -81.3260   29.9305  -69.6160 H         1 UNK         0.0685 
     76 H76       -79.4685   26.6728  -69.5291 H         1 UNK         0.1434 
     77 H77       -75.8705   28.3421  -71.1578 H         1 UNK         0.1329 
     78 H78       -79.3550   30.7939  -70.7093 H         1 UNK         0.1335 
     79 H79       -77.3719   31.7924  -71.5376 H         1 UNK         0.0680 
     80 H80       -76.7513   30.6518  -72.7094 H         1 UNK         0.0680 
     81 H81       -75.2081   33.0589  -72.4674 H         1 UNK         0.1032 
     82 H82       -73.6024   32.8009  -71.8441 H         1 UNK         0.1032 
     83 H83       -74.9701   31.2067  -74.0562 H         1 UNK         0.0461 
     84 H84       -71.7047   31.6557  -74.8486 H         1 UNK         0.3453 
     85 H85       -71.9164   33.1060  -75.7995 H         1 UNK         0.3453 
     86 H86       -72.6981   30.4039  -72.4765 H         1 UNK         0.2984 
     87 H87       -71.3114   28.5850  -73.2532 H         1 UNK         0.0554 
     88 H88       -72.4114   26.6466  -72.0716 H         1 UNK         0.0847 
     89 H89       -73.9675   27.1303  -72.7416 H         1 UNK         0.0847 
     90 H90       -73.1283   28.1803  -71.6128 H         1 UNK         0.0847 
     91 H91       -72.7657   26.5304  -74.8180 H         1 UNK         0.3141 
     92 H92       -70.1494   26.3720  -77.2508 H         1 UNK         0.0743 
     93 H93       -69.1587   25.0845  -75.3398 H         1 UNK         0.0784 
     94 H94       -69.8736   24.0189  -76.5374 H         1 UNK         0.0784 
     95 H95       -70.7227   24.3417  -75.0262 H         1 UNK         0.0784 
     96 H96       -72.9125   25.6685  -76.4876 H         1 UNK         0.3213 
     97 H97       -73.6464   24.9004  -79.8411 H         1 UNK         0.0855 
     98 H98       -73.6594   22.7524  -77.6477 H         1 UNK         0.0814 
     99 H99       -72.8907   22.5906  -79.2218 H         1 UNK         0.0814 
    100 H100      -74.6372   22.7400  -79.1151 H         1 UNK         0.0814 
    101 H101      -75.2661   24.6173  -77.5180 H         1 UNK         0.3105 
    102 H102      -75.7860   27.9293  -76.6644 H         1 UNK         0.0547 
    103 H103      -78.1949   27.6104  -77.2262 H         1 UNK         0.0837 
    104 H104      -77.2630   27.9702  -78.6721 H         1 UNK         0.0837 
    105 H105      -77.7759   26.3186  -78.3492 H         1 UNK         0.0837 
    106 H106      -77.3691   25.8449  -75.8488 H         1 UNK         0.3020 
    107 H107      -75.2562   24.4131  -73.3397 H         1 UNK         0.1245 
    108 H108      -77.8365   26.0688  -73.5201 H         1 UNK         0.0781 
    109 H109      -76.3791   26.5841  -72.7372 H         1 UNK         0.0781 
    110 H110      -77.1173   25.5737  -69.2171 H         1 UNK         0.0836 
    111 H111      -75.8273   26.1015  -70.2675 H         1 UNK         0.0836 
    112 H112      -77.8219   23.8332  -74.6603 H         1 UNK         0.3022 
    113 H113      -76.6113   20.9909  -76.3646 H         1 UNK         0.0747 
    114 H114      -78.2776   19.6788  -75.0641 H         1 UNK         0.0793 
    115 H115      -76.8422   19.9676  -74.0961 H         1 UNK         0.0793 
    116 H116      -78.2964   20.9098  -73.7995 H         1 UNK         0.0793 
    117 H117      -79.2608   21.9566  -75.8275 H         1 UNK         0.3047 
    118 H118      -79.3724   24.4659  -78.3185 H         1 UNK         0.0822 
    119 H119      -81.2667   23.1187  -79.1701 H         1 UNK         0.0807 
    120 H120      -80.6987   21.7005  -78.2877 H         1 UNK         0.0807 
    121 H121      -79.7487   22.3578  -79.6130 H         1 UNK         0.0807 
    122 H122      -81.4377   23.5014  -76.6748 H         1 UNK         0.2946 
    123 H123      -82.1989   25.0733  -75.0222 H         1 UNK         0.1144 
    124 H124      -81.9349   23.9258  -72.7985 H         1 UNK         0.0793 
    125 H125      -80.2253   23.6524  -73.1295 H         1 UNK         0.0793 
    126 H126      -81.4553   22.8573  -74.1038 H         1 UNK         0.0793 
    127 H127      -80.4743   26.0729  -72.9141 H         1 UNK         0.2896 
@<TRIPOS>BOND
     1    1    2 1    
     2    1   67 1    
     3    1   68 1    
     4    1   69 1    
     5    2    3 2    
     6    2    4 am   BACKBONE|DICT|INTERRES
     7    4    5 1    
     8    4   70 1    
     9    5    6 1    
    10    5   65 1    
    11    5   71 1    
    12    6    7 1    
    13    6   72 1    
    14    6   73 1    
    15    7    8 1    
    16    8    9 1    
    17    8   74 1    
    18    8   75 1    
    19    9   10 ar   
    20    9   14 ar   
    21   10   11 ar   
    22   10   76 1    
    23   11   12 ar   
    24   11   48 1    
    25   12   13 ar   
    26   12   77 1    
    27   13   14 ar   
    28   13   15 1    
    29   14   78 1    
    30   15   16 1    
    31   15   79 1    
    32   15   80 1    
    33   16   17 1    
    34   17   18 1    
    35   17   81 1    
    36   17   82 1    
    37   18   19 1    
    38   18   22 1    
    39   18   83 1    
    40   19   20 am   BACKBONE|DICT|INTERRES
    41   19   21 2    
    42   20   84 1    
    43   20   85 1    
    44   22   23 am   BACKBONE|DICT|INTERRES
    45   22   86 1    
    46   23   24 2    
    47   23   25 1    
    48   25   26 1    
    49   25   27 1    
    50   25   87 1    
    51   26   88 1    
    52   26   89 1    
    53   26   90 1    
    54   27   28 am   BACKBONE|DICT|INTERRES
    55   27   91 1    
    56   28   29 2    
    57   28   30 1    
    58   30   31 1    
    59   30   32 1    
    60   30   92 1    
    61   31   93 1    
    62   31   94 1    
    63   31   95 1    
    64   32   33 am   BACKBONE|DICT|INTERRES
    65   32   96 1    
    66   33   34 2    
    67   33   35 1    
    68   35   36 1    
    69   35   37 1    
    70   35   97 1    
    71   36   98 1    
    72   36   99 1    
    73   36  100 1    
    74   37   38 am   BACKBONE|DICT|INTERRES
    75   37  101 1    
    76   38   39 2    
    77   38   40 1    
    78   40   41 1    
    79   40   42 1    
    80   40  102 1    
    81   41  103 1    
    82   41  104 1    
    83   41  105 1    
    84   42   43 am   BACKBONE|DICT|INTERRES
    85   42  106 1    
    86   43   44 2    
    87   43   45 1    
    88   45   46 1    
    89   45   49 1    
    90   45  107 1    
    91   46   47 1    
    92   46  108 1    
    93   46  109 1    
    94   47   48 1    
    95   48  110 1    
    96   48  111 1    
    97   49   50 am   BACKBONE|DICT|INTERRES
    98   49  112 1    
    99   50   51 2    
   100   50   52 1    
   101   52   53 1    
   102   52   54 1    
   103   52  113 1    
   104   53  114 1    
   105   53  115 1    
   106   53  116 1    
   107   54   55 am   BACKBONE|DICT|INTERRES
   108   54  117 1    
   109   55   56 2    
   110   55   57 1    
   111   57   58 1    
   112   57   59 1    
   113   57  118 1    
   114   58  119 1    
   115   58  120 1    
   116   58  121 1    
   117   59   60 am   BACKBONE|DICT|INTERRES
   118   59  122 1    
   119   60   61 2    
   120   60   62 1    
   121   62   63 1    
   122   62   64 1    
   123   62  123 1    
   124   63  124 1    
   125   63  125 1    
   126   63  126 1    
   127   64   65 am   BACKBONE|DICT|INTERRES
   128   64  127 1    
   129   65   66 2    
@<TRIPOS>SUBSTRUCTURE
     1 UNK         1 GROUP             0       ****    0 ROOT    
