@<TRIPOS>MOLECULE
3R135
127   129    1
SMALL
USER_CHARGES


@<TRIPOS>ATOM
      1 CA        -82.4478   30.6514  -74.5535 C.3       0 UNK        -0.1998 
      2 C         -81.1739   29.9730  -74.0742 C.2       0 UNK         0.4909 
      3 O         -80.0871   30.5304  -74.2287 O.2       0 UNK        -0.5240 
      4 N         -81.2946   28.7653  -73.5080 N.am      1 UNK        -0.4739 
      5 CA        -80.1997   27.9558  -72.9525 C.3       1 UNK         0.0864 
      6 C6        -80.7244   26.9799  -71.8645 C.3       11 UNK        -0.0881 
      7 S7        -81.3372   27.8975  -70.4032 S.3       11 UNK        -0.2682 
      8 C8        -80.1279   27.4989  -69.0894 C.3       11 UNK         0.0289 
      9 C9        -78.6844   27.5134  -69.5761 C.ar      11 UNK        -0.0687 
     10 C10       -77.9359   26.3330  -69.5657 C.ar      11 UNK        -0.0823 
     11 C11       -76.6462   26.3049  -70.1016 C.ar      11 UNK        -0.0830 
     12 C12       -76.0946   27.4739  -70.6321 C.ar      11 UNK        -0.1021 
     13 C13       -76.8348   28.6597  -70.6480 C.ar      11 UNK        -0.0753 
     14 C14       -78.1185   28.6817  -70.0947 C.ar      11 UNK        -0.0933 
     15 C15       -76.2875   29.8868  -71.3550 C.3       11 UNK         0.0166 
     16 S16       -76.5224   29.6811  -73.1432 S.3       11 UNK        -0.2615 
     17 C17       -76.1778   31.3498  -73.7986 C.3       11 UNK        -0.0865 
     18 CA        -74.7751   31.4967  -74.4527 C.3       10 UNK         0.0862 
     19 C         -73.6606   31.8286  -73.4156 C.2       10 UNK         0.5551 
     20 N         -72.5005   31.1836  -73.4391 N.am      10 UNK        -0.7319 
     21 O         -73.8440   32.7081  -72.5777 O.2       10 UNK        -0.5018 
     22 N         -74.4727   30.3511  -75.3231 N.am      10 UNK        -0.4509 
     23 C         -73.8024   30.3832  -76.4780 C.2       10 UNK         0.4899 
     24 O         -73.4181   31.4187  -77.0237 O.2       10 UNK        -0.4839 
     25 CA        -73.4988   29.0049  -77.1036 C.3       9 UNK         0.0222 
     26 CB        -72.4926   29.0856  -78.2702 C.3       9 UNK        -0.1966 
     27 N         -73.0567   28.0099  -76.1141 N.am      9 UNK        -0.4218 
     28 C         -72.0181   28.1226  -75.2682 C.2       9 UNK         0.5020 
     29 O         -71.3003   29.1189  -75.1800 O.2       9 UNK        -0.5274 
     30 CA        -71.7413   26.9255  -74.3500 C.3       8 UNK         0.0270 
     31 CB        -72.6619   26.9716  -73.1177 C.3       8 UNK        -0.1976 
     32 N         -71.9078   25.6600  -75.0684 N.am      8 UNK        -0.4313 
     33 C         -70.9609   25.1073  -75.8428 C.2       8 UNK         0.5041 
     34 O         -69.8225   25.5631  -75.9590 O.2       8 UNK        -0.5577 
     35 CA        -71.3302   23.8291  -76.6196 C.3       7 UNK         0.0284 
     36 CB        -70.9062   22.5800  -75.8298 C.3       7 UNK        -0.1958 
     37 N         -72.7565   23.7382  -76.9360 N.am      7 UNK        -0.4454 
     38 C         -73.3896   24.4966  -77.8424 C.2       7 UNK         0.5089 
     39 O         -72.8208   25.2940  -78.5872 O.2       7 UNK        -0.5125 
     40 CA        -74.9236   24.3709  -77.8989 C.3       6 UNK         0.0408 
     41 CB        -75.3498   23.3978  -79.0084 C.3       6 UNK        -0.1791 
     42 N         -75.5307   23.9541  -76.6286 N.am      6 UNK        -0.4762 
     43 C         -75.4719   24.6478  -75.4838 C.2       6 UNK         0.5007 
     44 O         -74.8790   25.7252  -75.3808 O.2       6 UNK        -0.5032 
     45 CA        -76.1662   24.0150  -74.2615 C.3       5 UNK         0.0783 
     46 C46       -75.9476   24.8302  -72.9636 C.3       11 UNK        -0.0857 
     47 S47       -76.5087   23.9210  -71.4868 S.3       11 UNK        -0.2512 
     48 C48       -75.8786   24.9940  -70.1564 C.3       11 UNK         0.0225 
     49 N         -77.5895   23.8050  -74.5353 N.am      5 UNK        -0.4615 
     50 C         -78.1120   22.7296  -75.1368 C.2       4 UNK         0.5053 
     51 O         -77.4330   21.8081  -75.5909 O.2       4 UNK        -0.5105 
     52 CA        -79.6384   22.6938  -75.2817 C.3       4 UNK         0.0263 
     53 CB        -80.3180   22.5520  -73.9085 C.3       4 UNK        -0.1981 
     54 N         -80.1014   23.9172  -75.9323 N.am      4 UNK        -0.4224 
     55 C         -80.4781   24.0125  -77.2154 C.2       3 UNK         0.4895 
     56 O         -80.5806   23.0501  -77.9770 O.2       3 UNK        -0.5091 
     57 CA        -80.7869   25.4248  -77.7507 C.3       3 UNK         0.0250 
     58 CB        -82.2892   25.7290  -77.6331 C.3       3 UNK        -0.1996 
     59 N         -80.0286   26.4745  -77.0660 N.am      3 UNK        -0.4254 
     60 C         -78.6962   26.6119  -77.1191 C.2       2 UNK         0.5004 
     61 O         -77.9762   25.9594  -77.8729 O.2       2 UNK        -0.5226 
     62 CA        -78.0510   27.6269  -76.1583 C.3       2 UNK         0.0269 
     63 CB        -77.6130   28.8838  -76.9268 C.3       2 UNK        -0.1926 
     64 N         -78.8922   28.0337  -75.0261 N.am      2 UNK        -0.4687 
     65 C         -79.3990   27.2461  -74.0670 C.2       1 UNK         0.5165 
     66 O         -79.2862   26.0185  -74.0722 O.2       1 UNK        -0.5079 
     67 H67       -82.5734   31.6094  -74.0498 H         1 UNK         0.0900 
     68 H68       -82.3941   30.8346  -75.6263 H         1 UNK         0.0900 
     69 H69       -83.3321   30.0458  -74.3558 H         1 UNK         0.0900 
     70 H70       -82.2149   28.3594  -73.4157 H         1 UNK         0.2959 
     71 H71       -79.4874   28.6320  -72.4762 H         1 UNK         0.1079 
     72 H72       -79.9514   26.2743  -71.5574 H         1 UNK         0.0837 
     73 H73       -81.5364   26.3670  -72.2596 H         1 UNK         0.0837 
     74 H74       -80.3832   26.5233  -68.6728 H         1 UNK         0.0685 
     75 H75       -80.2395   28.2168  -68.2759 H         1 UNK         0.0685 
     76 H76       -78.3714   25.4202  -69.1822 H         1 UNK         0.1434 
     77 H77       -75.1110   27.4518  -71.0811 H         1 UNK         0.1329 
     78 H78       -78.7054   29.5896  -70.1281 H         1 UNK         0.1335 
     79 H79       -75.2271   30.0166  -71.1330 H         1 UNK         0.0680 
     80 H80       -76.7993   30.7875  -71.0125 H         1 UNK         0.0680 
     81 H81       -76.3506   32.1035  -73.0283 H         1 UNK         0.1032 
     82 H82       -76.9379   31.5475  -74.5559 H         1 UNK         0.1032 
     83 H83       -74.8256   32.3858  -75.0838 H         1 UNK         0.0461 
     84 H84       -72.2899   30.4941  -74.1518 H         1 UNK         0.3453 
     85 H85       -71.7964   31.4265  -72.7612 H         1 UNK         0.3453 
     86 H86       -74.7377   29.4542  -74.9421 H         1 UNK         0.2984 
     87 H87       -74.4423   28.6352  -77.5070 H         1 UNK         0.0554 
     88 H88       -72.8629   29.7357  -79.0637 H         1 UNK         0.0847 
     89 H89       -72.3193   28.1039  -78.7114 H         1 UNK         0.0847 
     90 H90       -71.5296   29.4819  -77.9465 H         1 UNK         0.0847 
     91 H91       -73.6255   27.1710  -76.0481 H         1 UNK         0.3141 
     92 H92       -70.7100   26.9995  -73.9976 H         1 UNK         0.0743 
     93 H93       -72.5162   26.1022  -72.4766 H         1 UNK         0.0784 
     94 H94       -72.4521   27.8566  -72.5152 H         1 UNK         0.0784 
     95 H95       -73.7154   27.0193  -73.3931 H         1 UNK         0.0784 
     96 H96       -72.8379   25.2618  -75.0725 H         1 UNK         0.3213 
     97 H97       -70.7736   23.8444  -77.5594 H         1 UNK         0.0855 
     98 H98       -71.4370   22.5004  -74.8802 H         1 UNK         0.0814 
     99 H99       -69.8391   22.6062  -75.6043 H         1 UNK         0.0814 
    100 H100      -71.0922   21.6683  -76.3978 H         1 UNK         0.0814 
    101 H101      -73.3080   23.0891  -76.3942 H         1 UNK         0.3105 
    102 H102      -75.3177   25.3594  -78.1431 H         1 UNK         0.0547 
    103 H103      -75.0150   22.3799  -78.8058 H         1 UNK         0.0837 
    104 H104      -74.9304   23.6951  -79.9706 H         1 UNK         0.0837 
    105 H105      -76.4342   23.3808  -79.1216 H         1 UNK         0.0837 
    106 H106      -76.0595   23.0887  -76.6298 H         1 UNK         0.3020 
    107 H107      -75.6895   23.0429  -74.1136 H         1 UNK         0.1245 
    108 H108      -76.4634   25.7912  -73.0173 H         1 UNK         0.0781 
    109 H109      -74.8883   25.0477  -72.8233 H         1 UNK         0.0781 
    110 H110      -74.8111   25.1704  -70.2982 H         1 UNK         0.0836 
    111 H111      -75.9784   24.4735  -69.2028 H         1 UNK         0.0836 
    112 H112      -78.2111   24.5498  -74.2286 H         1 UNK         0.3022 
    113 H113      -79.8999   21.8184  -75.8801 H         1 UNK         0.0747 
    114 H114      -81.3998   22.4672  -74.0126 H         1 UNK         0.0793 
    115 H115      -79.9707   21.6560  -73.3924 H         1 UNK         0.0793 
    116 H116      -80.1126   23.4036  -73.2583 H         1 UNK         0.0793 
    117 H117      -80.0050   24.7704  -75.3905 H         1 UNK         0.3047 
    118 H118      -80.5114   25.4444  -78.8074 H         1 UNK         0.0822 
    119 H119      -82.5348   26.6952  -78.0743 H         1 UNK         0.0807 
    120 H120      -82.6204   25.7388  -76.5939 H         1 UNK         0.0807 
    121 H121      -82.8808   24.9763  -78.1564 H         1 UNK         0.0807 
    122 H122      -80.5392   27.0723  -76.4331 H         1 UNK         0.2946 
    123 H123      -77.1610   27.1509  -75.7433 H         1 UNK         0.1144 
    124 H124      -77.0688   29.5736  -76.2830 H         1 UNK         0.0793 
    125 H125      -78.4680   29.4188  -77.3418 H         1 UNK         0.0793 
    126 H126      -76.9538   28.6265  -77.7569 H         1 UNK         0.0793 
    127 H127      -79.0677   29.0304  -74.9265 H         1 UNK         0.2896 
@<TRIPOS>BOND
     1    1    2 1    
     2    1   67 1    
     3    1   68 1    
     4    1   69 1    
     5    2    3 2    
     6    2    4 am   BACKBONE|DICT|INTERRES
     7    4    5 1    
     8    4   70 1    
     9    5    6 1    
    10    5   65 1    
    11    5   71 1    
    12    6    7 1    
    13    6   72 1    
    14    6   73 1    
    15    7    8 1    
    16    8    9 1    
    17    8   74 1    
    18    8   75 1    
    19    9   10 ar   
    20    9   14 ar   
    21   10   11 ar   
    22   10   76 1    
    23   11   12 ar   
    24   11   48 1    
    25   12   13 ar   
    26   12   77 1    
    27   13   14 ar   
    28   13   15 1    
    29   14   78 1    
    30   15   16 1    
    31   15   79 1    
    32   15   80 1    
    33   16   17 1    
    34   17   18 1    
    35   17   81 1    
    36   17   82 1    
    37   18   19 1    
    38   18   22 1    
    39   18   83 1    
    40   19   20 am   BACKBONE|DICT|INTERRES
    41   19   21 2    
    42   20   84 1    
    43   20   85 1    
    44   22   23 am   BACKBONE|DICT|INTERRES
    45   22   86 1    
    46   23   24 2    
    47   23   25 1    
    48   25   26 1    
    49   25   27 1    
    50   25   87 1    
    51   26   88 1    
    52   26   89 1    
    53   26   90 1    
    54   27   28 am   BACKBONE|DICT|INTERRES
    55   27   91 1    
    56   28   29 2    
    57   28   30 1    
    58   30   31 1    
    59   30   32 1    
    60   30   92 1    
    61   31   93 1    
    62   31   94 1    
    63   31   95 1    
    64   32   33 am   BACKBONE|DICT|INTERRES
    65   32   96 1    
    66   33   34 2    
    67   33   35 1    
    68   35   36 1    
    69   35   37 1    
    70   35   97 1    
    71   36   98 1    
    72   36   99 1    
    73   36  100 1    
    74   37   38 am   BACKBONE|DICT|INTERRES
    75   37  101 1    
    76   38   39 2    
    77   38   40 1    
    78   40   41 1    
    79   40   42 1    
    80   40  102 1    
    81   41  103 1    
    82   41  104 1    
    83   41  105 1    
    84   42   43 am   BACKBONE|DICT|INTERRES
    85   42  106 1    
    86   43   44 2    
    87   43   45 1    
    88   45   46 1    
    89   45   49 1    
    90   45  107 1    
    91   46   47 1    
    92   46  108 1    
    93   46  109 1    
    94   47   48 1    
    95   48  110 1    
    96   48  111 1    
    97   49   50 am   BACKBONE|DICT|INTERRES
    98   49  112 1    
    99   50   51 2    
   100   50   52 1    
   101   52   53 1    
   102   52   54 1    
   103   52  113 1    
   104   53  114 1    
   105   53  115 1    
   106   53  116 1    
   107   54   55 am   BACKBONE|DICT|INTERRES
   108   54  117 1    
   109   55   56 2    
   110   55   57 1    
   111   57   58 1    
   112   57   59 1    
   113   57  118 1    
   114   58  119 1    
   115   58  120 1    
   116   58  121 1    
   117   59   60 am   BACKBONE|DICT|INTERRES
   118   59  122 1    
   119   60   61 2    
   120   60   62 1    
   121   62   63 1    
   122   62   64 1    
   123   62  123 1    
   124   63  124 1    
   125   63  125 1    
   126   63  126 1    
   127   64   65 am   BACKBONE|DICT|INTERRES
   128   64  127 1    
   129   65   66 2    
@<TRIPOS>SUBSTRUCTURE
     1 UNK         1 GROUP             0       ****    0 ROOT    
