@<TRIPOS>MOLECULE
3R135
127   129    1
SMALL
USER_CHARGES


@<TRIPOS>ATOM
      1 CA        -80.1255   21.6318  -72.5600 C.3       0 UNK        -0.1998 
      2 C         -80.8860   22.8934  -72.9372 C.2       0 UNK         0.4909 
      3 O         -81.5778   22.9094  -73.9560 O.2       0 UNK        -0.5240 
      4 N         -80.7545   23.9570  -72.1337 N.am      1 UNK        -0.4739 
      5 CA        -81.3637   25.2722  -72.3601 C.3       1 UNK         0.0864 
      6 C6        -81.1689   26.2312  -71.1560 C.3       11 UNK        -0.0881 
      7 S7        -79.4598   26.3211  -70.5045 S.3       11 UNK        -0.2682 
      8 C8        -79.4069   28.0182  -69.8476 C.3       11 UNK         0.0289 
      9 C9        -78.5667   28.9435  -70.7171 C.ar      11 UNK        -0.0687 
     10 C10       -79.0680   29.4351  -71.9265 C.ar      11 UNK        -0.0823 
     11 C11       -78.3074   30.3172  -72.7008 C.ar      11 UNK        -0.0830 
     12 C12       -77.0400   30.7028  -72.2575 C.ar      11 UNK        -0.1021 
     13 C13       -76.5225   30.2241  -71.0464 C.ar      11 UNK        -0.0753 
     14 C14       -77.2944   29.3372  -70.2896 C.ar      11 UNK        -0.0933 
     15 C15       -75.1392   30.6161  -70.5215 C.3       11 UNK         0.0166 
     16 S16       -74.3519   32.0285  -71.3718 S.3       11 UNK        -0.2615 
     17 C17       -72.5973   31.7712  -70.9554 C.3       11 UNK        -0.0865 
     18 CA        -71.8345   31.0117  -72.0740 C.3       10 UNK         0.0862 
     19 C         -70.3050   31.1133  -71.8503 C.2       10 UNK         0.5551 
     20 N         -69.6490   32.0829  -72.4723 N.am      10 UNK        -0.7319 
     21 O         -69.7164   30.3472  -71.0885 O.2       10 UNK        -0.5018 
     22 N         -72.2210   29.5966  -72.1287 N.am      10 UNK        -0.4509 
     23 C         -72.9009   28.9986  -73.1118 C.2       10 UNK         0.4899 
     24 O         -73.3861   29.5785  -74.0850 O.2       10 UNK        -0.4839 
     25 CA        -73.0743   27.4765  -72.9638 C.3       9 UNK         0.0222 
     26 CB        -74.4697   27.1287  -72.4193 C.3       9 UNK        -0.1966 
     27 N         -72.8209   26.7554  -74.2183 N.am      9 UNK        -0.4218 
     28 C         -71.6118   26.6943  -74.7988 C.2       9 UNK         0.5020 
     29 O         -70.6296   27.2969  -74.3600 O.2       9 UNK        -0.5274 
     30 CA        -71.3944   25.7900  -76.0245 C.3       8 UNK         0.0270 
     31 CB        -70.5153   24.5843  -75.6192 C.3       8 UNK        -0.1976 
     32 N         -72.6073   25.3138  -76.7052 N.am      8 UNK        -0.4313 
     33 C         -72.5825   24.7969  -77.9438 C.2       8 UNK         0.5041 
     34 O         -71.5890   24.8157  -78.6737 O.2       8 UNK        -0.5577 
     35 CA        -73.8498   24.0906  -78.4479 C.3       7 UNK         0.0284 
     36 CB        -74.1595   22.8437  -77.6021 C.3       7 UNK        -0.1958 
     37 N         -75.0186   24.9656  -78.5125 N.am      7 UNK        -0.4454 
     38 C         -75.1718   25.9637  -79.3941 C.2       7 UNK         0.5089 
     39 O         -74.3353   26.2652  -80.2462 O.2       7 UNK        -0.5125 
     40 CA        -76.4900   26.7548  -79.3303 C.3       6 UNK         0.0408 
     41 CB        -77.5906   26.0350  -80.1254 C.3       6 UNK        -0.1791 
     42 N         -76.9519   26.9895  -77.9623 N.am      6 UNK        -0.4762 
     43 C         -76.3196   27.7657  -77.0692 C.2       6 UNK         0.5007 
     44 O         -75.3000   28.4091  -77.3197 O.2       6 UNK        -0.5032 
     45 CA        -76.9127   27.7915  -75.6467 C.3       5 UNK         0.0783 
     46 C46       -78.1968   28.6579  -75.5873 C.3       11 UNK        -0.0857 
     47 S47       -77.8521   30.4394  -75.4504 S.3       11 UNK        -0.2512 
     48 C48       -78.8606   30.8903  -73.9996 C.3       11 UNK         0.0225 
     49 N         -77.1709   26.4406  -75.1377 N.am      5 UNK        -0.4615 
     50 C         -76.2918   25.4339  -75.0400 C.2       4 UNK         0.5053 
     51 O         -75.0905   25.5272  -75.2982 O.2       4 UNK        -0.5105 
     52 CA        -76.8682   24.0709  -74.6285 C.3       4 UNK         0.0263 
     53 CB        -77.0386   23.9786  -73.1039 C.3       4 UNK        -0.1981 
     54 N         -78.1440   23.8024  -75.2971 N.am      4 UNK        -0.4224 
     55 C         -78.2687   23.5641  -76.6115 C.2       3 UNK         0.4895 
     56 O         -77.3164   23.4911  -77.3859 O.2       3 UNK        -0.5091 
     57 CA        -79.6951   23.4312  -77.1665 C.3       3 UNK         0.0250 
     58 CB        -80.2213   21.9988  -76.9863 C.3       3 UNK        -0.1996 
     59 N         -80.6177   24.3909  -76.5551 N.am      3 UNK        -0.4254 
     60 C         -80.5695   25.7126  -76.7847 C.2       2 UNK         0.5004 
     61 O         -79.7786   26.2379  -77.5680 O.2       2 UNK        -0.5226 
     62 CA        -81.5261   26.6103  -75.9774 C.3       2 UNK         0.0269 
     63 CB        -82.8468   26.8068  -76.7377 C.3       2 UNK        -0.1926 
     64 N         -81.8094   26.1174  -74.6250 N.am      2 UNK        -0.4687 
     65 C         -80.8792   25.8880  -73.6875 C.2       1 UNK         0.5165 
     66 O         -79.6778   26.0912  -73.8628 O.2       1 UNK        -0.5079 
     67 H67       -80.8212   20.8065  -72.4114 H         1 UNK         0.0900 
     68 H68       -79.4357   21.3565  -73.3573 H         1 UNK         0.0900 
     69 H69       -79.5513   21.7612  -71.6428 H         1 UNK         0.0900 
     70 H70       -80.1454   23.9075  -71.3290 H         1 UNK         0.2959 
     71 H71       -82.4381   25.0997  -72.4551 H         1 UNK         0.1079 
     72 H72       -81.5227   27.2316  -71.4121 H         1 UNK         0.0837 
     73 H73       -81.8062   25.9022  -70.3337 H         1 UNK         0.0837 
     74 H74       -80.4136   28.4240  -69.7408 H         1 UNK         0.0685 
     75 H75       -78.9979   27.9778  -68.8370 H         1 UNK         0.0685 
     76 H76       -80.0522   29.1345  -72.2580 H         1 UNK         0.1434 
     77 H77       -76.4661   31.3791  -72.8742 H         1 UNK         0.1329 
     78 H78       -76.9047   28.9578  -69.3547 H         1 UNK         0.1335 
     79 H79       -74.4909   29.7443  -70.5926 H         1 UNK         0.0680 
     80 H80       -75.2108   30.8594  -69.4603 H         1 UNK         0.0680 
     81 H81       -72.1630   32.7615  -70.8032 H         1 UNK         0.1032 
     82 H82       -72.5085   31.2564  -69.9968 H         1 UNK         0.1032 
     83 H83       -72.0563   31.4878  -73.0317 H         1 UNK         0.0461 
     84 H84       -70.1254   32.7229  -73.0891 H         1 UNK         0.3453 
     85 H85       -68.6554   32.1739  -72.3274 H         1 UNK         0.3453 
     86 H86       -71.8049   29.0245  -71.4068 H         1 UNK         0.2984 
     87 H87       -72.3437   27.1121  -72.2380 H         1 UNK         0.0554 
     88 H88       -74.6048   27.5244  -71.4129 H         1 UNK         0.0847 
     89 H89       -74.6170   26.0511  -72.3590 H         1 UNK         0.0847 
     90 H90       -75.2652   27.5467  -73.0338 H         1 UNK         0.0847 
     91 H91       -73.6187   26.2819  -74.6346 H         1 UNK         0.3141 
     92 H92       -70.8316   26.3994  -76.7352 H         1 UNK         0.0743 
     93 H93       -69.6163   24.9062  -75.0914 H         1 UNK         0.0784 
     94 H94       -71.0538   23.9029  -74.9596 H         1 UNK         0.0784 
     95 H95       -70.1805   24.0150  -76.4861 H         1 UNK         0.0784 
     96 H96       -73.4841   25.3112  -76.1879 H         1 UNK         0.3213 
     97 H97       -73.6444   23.7468  -79.4643 H         1 UNK         0.0855 
     98 H98       -74.4426   23.1020  -76.5824 H         1 UNK         0.0814 
     99 H99       -73.2907   22.1868  -77.5424 H         1 UNK         0.0814 
    100 H100      -74.9723   22.2627  -78.0378 H         1 UNK         0.0814 
    101 H101      -75.7896   24.7430  -77.8913 H         1 UNK         0.3105 
    102 H102      -76.3177   27.7275  -79.7957 H         1 UNK         0.0547 
    103 H103      -78.5078   26.6233  -80.1546 H         1 UNK         0.0837 
    104 H104      -77.2804   25.8657  -81.1573 H         1 UNK         0.0837 
    105 H105      -77.8318   25.0634  -79.6926 H         1 UNK         0.0837 
    106 H106      -77.8228   26.5400  -77.6917 H         1 UNK         0.3020 
    107 H107      -76.1596   28.2364  -74.9940 H         1 UNK         0.1245 
    108 H108      -78.7952   28.3693  -74.7235 H         1 UNK         0.0781 
    109 H109      -78.8391   28.4932  -76.4535 H         1 UNK         0.0781 
    110 H110      -79.8909   30.5708  -74.1641 H         1 UNK         0.0836 
    111 H111      -78.8891   31.9778  -73.9185 H         1 UNK         0.0836 
    112 H112      -78.1215   26.2650  -74.8185 H         1 UNK         0.3022 
    113 H113      -76.1587   23.2996  -74.9335 H         1 UNK         0.0747 
    114 H114      -77.4170   23.0015  -72.8055 H         1 UNK         0.0793 
    115 H115      -76.0829   24.1185  -72.5983 H         1 UNK         0.0793 
    116 H116      -77.7219   24.7364  -72.7195 H         1 UNK         0.0793 
    117 H117      -78.9826   23.9276  -74.7487 H         1 UNK         0.3047 
    118 H118      -79.6530   23.6403  -78.2379 H         1 UNK         0.0822 
    119 H119      -79.5769   21.2827  -77.4980 H         1 UNK         0.0807 
    120 H120      -81.2226   21.8881  -77.4028 H         1 UNK         0.0807 
    121 H121      -80.2603   21.7062  -75.9371 H         1 UNK         0.0807 
    122 H122      -81.2654   24.0326  -75.8625 H         1 UNK         0.2946 
    123 H123      -81.0449   27.5848  -75.8756 H         1 UNK         0.1144 
    124 H124      -83.4956   27.5208  -76.2300 H         1 UNK         0.0793 
    125 H125      -83.3950   25.8699  -76.8450 H         1 UNK         0.0793 
    126 H126      -82.6648   27.1948  -77.7411 H         1 UNK         0.0793 
    127 H127      -82.7738   25.8969  -74.4205 H         1 UNK         0.2896 
@<TRIPOS>BOND
     1    1    2 1    
     2    1   67 1    
     3    1   68 1    
     4    1   69 1    
     5    2    3 2    
     6    2    4 am   BACKBONE|DICT|INTERRES
     7    4    5 1    
     8    4   70 1    
     9    5    6 1    
    10    5   65 1    
    11    5   71 1    
    12    6    7 1    
    13    6   72 1    
    14    6   73 1    
    15    7    8 1    
    16    8    9 1    
    17    8   74 1    
    18    8   75 1    
    19    9   10 ar   
    20    9   14 ar   
    21   10   11 ar   
    22   10   76 1    
    23   11   12 ar   
    24   11   48 1    
    25   12   13 ar   
    26   12   77 1    
    27   13   14 ar   
    28   13   15 1    
    29   14   78 1    
    30   15   16 1    
    31   15   79 1    
    32   15   80 1    
    33   16   17 1    
    34   17   18 1    
    35   17   81 1    
    36   17   82 1    
    37   18   19 1    
    38   18   22 1    
    39   18   83 1    
    40   19   20 am   BACKBONE|DICT|INTERRES
    41   19   21 2    
    42   20   84 1    
    43   20   85 1    
    44   22   23 am   BACKBONE|DICT|INTERRES
    45   22   86 1    
    46   23   24 2    
    47   23   25 1    
    48   25   26 1    
    49   25   27 1    
    50   25   87 1    
    51   26   88 1    
    52   26   89 1    
    53   26   90 1    
    54   27   28 am   BACKBONE|DICT|INTERRES
    55   27   91 1    
    56   28   29 2    
    57   28   30 1    
    58   30   31 1    
    59   30   32 1    
    60   30   92 1    
    61   31   93 1    
    62   31   94 1    
    63   31   95 1    
    64   32   33 am   BACKBONE|DICT|INTERRES
    65   32   96 1    
    66   33   34 2    
    67   33   35 1    
    68   35   36 1    
    69   35   37 1    
    70   35   97 1    
    71   36   98 1    
    72   36   99 1    
    73   36  100 1    
    74   37   38 am   BACKBONE|DICT|INTERRES
    75   37  101 1    
    76   38   39 2    
    77   38   40 1    
    78   40   41 1    
    79   40   42 1    
    80   40  102 1    
    81   41  103 1    
    82   41  104 1    
    83   41  105 1    
    84   42   43 am   BACKBONE|DICT|INTERRES
    85   42  106 1    
    86   43   44 2    
    87   43   45 1    
    88   45   46 1    
    89   45   49 1    
    90   45  107 1    
    91   46   47 1    
    92   46  108 1    
    93   46  109 1    
    94   47   48 1    
    95   48  110 1    
    96   48  111 1    
    97   49   50 am   BACKBONE|DICT|INTERRES
    98   49  112 1    
    99   50   51 2    
   100   50   52 1    
   101   52   53 1    
   102   52   54 1    
   103   52  113 1    
   104   53  114 1    
   105   53  115 1    
   106   53  116 1    
   107   54   55 am   BACKBONE|DICT|INTERRES
   108   54  117 1    
   109   55   56 2    
   110   55   57 1    
   111   57   58 1    
   112   57   59 1    
   113   57  118 1    
   114   58  119 1    
   115   58  120 1    
   116   58  121 1    
   117   59   60 am   BACKBONE|DICT|INTERRES
   118   59  122 1    
   119   60   61 2    
   120   60   62 1    
   121   62   63 1    
   122   62   64 1    
   123   62  123 1    
   124   63  124 1    
   125   63  125 1    
   126   63  126 1    
   127   64   65 am   BACKBONE|DICT|INTERRES
   128   64  127 1    
   129   65   66 2    
@<TRIPOS>SUBSTRUCTURE
     1 UNK         1 GROUP             0       ****    0 ROOT    
