@<TRIPOS>MOLECULE
3R135
127   129    1
SMALL
USER_CHARGES


@<TRIPOS>ATOM
      1 CA        -81.0843   24.5564  -72.5195 C.3       0 UNK        -0.1998 
      2 C         -81.5818   25.7583  -73.3026 C.2       0 UNK         0.4909 
      3 O         -82.4421   25.6072  -74.1706 O.2       0 UNK        -0.5240 
      4 N         -81.0537   26.9504  -72.9965 N.am      1 UNK        -0.4739 
      5 CA        -81.4684   28.2429  -73.5558 C.3       1 UNK         0.0864 
      6 C6        -80.7594   29.4385  -72.8694 C.3       11 UNK        -0.0881 
      7 S7        -80.8465   29.3605  -71.0462 S.3       11 UNK        -0.2682 
      8 C8        -79.1220   29.7016  -70.5646 C.3       11 UNK         0.0289 
      9 C9        -78.1375   28.6451  -71.0543 C.ar      11 UNK        -0.0687 
     10 C10       -78.0890   27.3852  -70.4477 C.ar      11 UNK        -0.0823 
     11 C11       -77.1395   26.4384  -70.8493 C.ar      11 UNK        -0.0830 
     12 C12       -76.2420   26.7595  -71.8711 C.ar      11 UNK        -0.1021 
     13 C13       -76.2870   28.0099  -72.4927 C.ar      11 UNK        -0.0753 
     14 C14       -77.2373   28.9480  -72.0816 C.ar      11 UNK        -0.0933 
     15 C15       -75.2969   28.3412  -73.5989 C.3       11 UNK         0.0166 
     16 S16       -73.6640   28.7669  -72.9232 S.3       11 UNK        -0.2615 
     17 C17       -73.8913   30.5081  -72.4117 C.3       11 UNK        -0.0865 
     18 CA        -72.9615   31.4880  -73.1743 C.3       10 UNK         0.0862 
     19 C         -71.4761   31.3414  -72.7218 C.2       10 UNK         0.5551 
     20 N         -70.5781   30.8108  -73.5454 N.am      10 UNK        -0.7319 
     21 O         -71.1362   31.7281  -71.6063 O.2       10 UNK        -0.5018 
     22 N         -73.1709   31.3995  -74.6266 N.am      10 UNK        -0.4509 
     23 C         -72.7248   32.2867  -75.5233 C.2       10 UNK         0.4899 
     24 O         -72.2550   33.3829  -75.2141 O.2       10 UNK        -0.4839 
     25 CA        -72.8106   31.8921  -77.0148 C.3       9 UNK         0.0222 
     26 CB        -71.5846   32.3959  -77.8058 C.3       9 UNK        -0.1966 
     27 N         -73.0261   30.4595  -77.2847 N.am      9 UNK        -0.4218 
     28 C         -72.2584   29.4271  -76.9036 C.2       9 UNK         0.5020 
     29 O         -71.2768   29.5220  -76.1606 O.2       9 UNK        -0.5274 
     30 CA        -72.6538   28.0550  -77.4566 C.3       8 UNK         0.0270 
     31 CB        -72.0123   27.8188  -78.8372 C.3       8 UNK        -0.1976 
     32 N         -72.2208   27.0304  -76.5117 N.am      8 UNK        -0.4313 
     33 C         -72.7151   25.7905  -76.4350 C.2       8 UNK         0.5041 
     34 O         -73.5563   25.3487  -77.2222 O.2       8 UNK        -0.5577 
     35 CA        -72.1672   24.8878  -75.3150 C.3       7 UNK         0.0284 
     36 CB        -72.0437   25.6151  -73.9622 C.3       7 UNK        -0.1958 
     37 N         -73.0589   23.7437  -75.1398 N.am      7 UNK        -0.4454 
     38 C         -72.6939   22.4573  -75.0898 C.2       7 UNK         0.5089 
     39 O         -71.5249   22.0767  -75.1746 O.2       7 UNK        -0.5125 
     40 CA        -73.8208   21.4259  -74.8870 C.3       6 UNK         0.0408 
     41 CB        -73.3370   20.1346  -74.2000 C.3       6 UNK        -0.1791 
     42 N         -74.9148   22.0139  -74.1140 N.am      6 UNK        -0.4762 
     43 C         -76.2212   21.8440  -74.3496 C.2       6 UNK         0.5007 
     44 O         -76.6695   21.0727  -75.1992 O.2       6 UNK        -0.5032 
     45 CA        -77.2010   22.6978  -73.5140 C.3       5 UNK         0.0783 
     46 C46       -76.6508   23.0784  -72.1097 C.3       11 UNK        -0.0857 
     47 S47       -77.9436   23.7790  -71.0302 S.3       11 UNK        -0.2512 
     48 C48       -77.0491   25.0929  -70.1419 C.3       11 UNK         0.0225 
     49 N         -77.6625   23.8537  -74.2948 N.am      5 UNK        -0.4615 
     50 C         -76.9047   24.8287  -74.8177 C.2       4 UNK         0.5053 
     51 O         -75.6849   24.8937  -74.6602 O.2       4 UNK        -0.5105 
     52 CA        -77.6196   25.9311  -75.6292 C.3       4 UNK         0.0263 
     53 CB        -76.7589   26.4494  -76.7996 C.3       4 UNK        -0.1981 
     54 N         -78.9693   25.5906  -76.1026 N.am      4 UNK        -0.4224 
     55 C         -79.3295   24.5970  -76.9329 C.2       3 UNK         0.4895 
     56 O         -78.5444   23.7711  -77.3972 O.2       3 UNK        -0.5091 
     57 CA        -80.8222   24.4828  -77.2978 C.3       3 UNK         0.0250 
     58 CB        -81.4711   23.3072  -76.5479 C.3       3 UNK        -0.1996 
     59 N         -81.5754   25.7100  -77.0211 N.am      3 UNK        -0.4254 
     60 C         -81.5890   26.7816  -77.8294 C.2       2 UNK         0.5004 
     61 O         -81.0460   26.8090  -78.9343 O.2       2 UNK        -0.5226 
     62 CA        -82.3048   28.0480  -77.3186 C.3       2 UNK         0.0269 
     63 CB        -83.7423   28.1085  -77.8597 C.3       2 UNK        -0.1926 
     64 N         -82.3334   28.1661  -75.8562 N.am      2 UNK        -0.4687 
     65 C         -81.2463   28.2744  -75.0797 C.2       1 UNK         0.5165 
     66 O         -80.0974   28.3287  -75.5210 O.2       1 UNK        -0.5079 
     67 H67       -80.6179   24.8601  -71.5829 H         1 UNK         0.0900 
     68 H68       -80.3586   23.9936  -73.1034 H         1 UNK         0.0900 
     69 H69       -81.9149   23.8939  -72.2779 H         1 UNK         0.0900 
     70 H70       -80.3398   27.0107  -72.2837 H         1 UNK         0.2959 
     71 H71       -82.5388   28.3428  -73.3626 H         1 UNK         0.1079 
     72 H72       -79.7159   29.4952  -73.1803 H         1 UNK         0.0837 
     73 H73       -81.2141   30.3781  -73.1886 H         1 UNK         0.0837 
     74 H74       -79.0694   29.7590  -69.4765 H         1 UNK         0.0685 
     75 H75       -78.8417   30.6903  -70.9317 H         1 UNK         0.0685 
     76 H76       -78.7773   27.1527  -69.6463 H         1 UNK         0.1434 
     77 H77       -75.4935   26.0436  -72.1797 H         1 UNK         0.1329 
     78 H78       -77.2665   29.9212  -72.5518 H         1 UNK         0.1335 
     79 H79       -75.1778   27.4744  -74.2479 H         1 UNK         0.0680 
     80 H80       -75.6668   29.1484  -74.2329 H         1 UNK         0.0680 
     81 H81       -74.9294   30.8038  -72.5645 H         1 UNK         0.1032 
     82 H82       -73.7286   30.5788  -71.3345 H         1 UNK         0.1032 
     83 H83       -73.2580   32.4962  -72.8784 H         1 UNK         0.0461 
     84 H84       -70.8571   30.4578  -74.4552 H         1 UNK         0.3453 
     85 H85       -69.6208   30.7251  -73.2448 H         1 UNK         0.3453 
     86 H86       -73.5114   30.5116  -74.9617 H         1 UNK         0.2984 
     87 H87       -73.6891   32.4066  -77.4065 H         1 UNK         0.0554 
     88 H88       -71.6645   32.1480  -78.8642 H         1 UNK         0.0847 
     89 H89       -70.6572   31.9626  -77.4293 H         1 UNK         0.0847 
     90 H90       -71.4873   33.4802  -77.7382 H         1 UNK         0.0847 
     91 H91       -73.8216   30.2559  -77.8753 H         1 UNK         0.3141 
     92 H92       -73.7416   28.0154  -77.5465 H         1 UNK         0.0743 
     93 H93       -72.3108   28.5910  -79.5474 H         1 UNK         0.0784 
     94 H94       -70.9231   27.8300  -78.7803 H         1 UNK         0.0784 
     95 H95       -72.3149   26.8603  -79.2592 H         1 UNK         0.0784 
     96 H96       -71.5433   27.3576  -75.8331 H         1 UNK         0.3213 
     97 H97       -71.1770   24.5551  -75.6327 H         1 UNK         0.0855 
     98 H98       -73.0126   25.9822  -73.6227 H         1 UNK         0.0814 
     99 H99       -71.3627   26.4650  -74.0114 H         1 UNK         0.0814 
    100 H100      -71.6585   24.9465  -73.1924 H         1 UNK         0.0814 
    101 H101      -74.0492   23.9838  -75.1322 H         1 UNK         0.3105 
    102 H102      -74.1766   21.1706  -75.8872 H         1 UNK         0.0547 
    103 H103      -72.9296   20.3363  -73.2088 H         1 UNK         0.0837 
    104 H104      -74.1492   19.4162  -74.0896 H         1 UNK         0.0837 
    105 H105      -72.5548   19.6475  -74.7835 H         1 UNK         0.0837 
    106 H106      -74.6392   22.7033  -73.4278 H         1 UNK         0.3020 
    107 H107      -78.0761   22.0638  -73.3595 H         1 UNK         0.1245 
    108 H108      -75.8210   23.7800  -72.1906 H         1 UNK         0.0781 
    109 H109      -76.2569   22.1959  -71.6017 H         1 UNK         0.0781 
    110 H110      -76.0053   24.8082  -70.0003 H         1 UNK         0.0836 
    111 H111      -77.4705   25.1757  -69.1389 H         1 UNK         0.0836 
    112 H112      -78.6449   23.8631  -74.5179 H         1 UNK         0.3022 
    113 H113      -77.7551   26.7604  -74.9332 H         1 UNK         0.0747 
    114 H114      -77.2637   27.2512  -77.3384 H         1 UNK         0.0793 
    115 H115      -75.8083   26.8480  -76.4464 H         1 UNK         0.0793 
    116 H116      -76.5279   25.6563  -77.5114 H         1 UNK         0.0793 
    117 H117      -79.6847   26.2520  -75.8251 H         1 UNK         0.3047 
    118 H118      -80.8792   24.2693  -78.3676 H         1 UNK         0.0822 
    119 H119      -80.9669   22.3688  -76.7832 H         1 UNK         0.0807 
    120 H120      -82.5183   23.1891  -76.8266 H         1 UNK         0.0807 
    121 H121      -81.4258   23.4373  -75.4668 H         1 UNK         0.0807 
    122 H122      -82.0478   25.7644  -76.1223 H         1 UNK         0.2946 
    123 H123      -81.7531   28.9060  -77.7098 H         1 UNK         0.1144 
    124 H124      -83.7521   28.0488  -78.9491 H         1 UNK         0.0793 
    125 H125      -84.2318   29.0429  -77.5845 H         1 UNK         0.0793 
    126 H126      -84.3505   27.2852  -77.4828 H         1 UNK         0.0793 
    127 H127      -83.2379   28.0741  -75.4151 H         1 UNK         0.2896 
@<TRIPOS>BOND
     1    1    2 1    
     2    1   67 1    
     3    1   68 1    
     4    1   69 1    
     5    2    3 2    
     6    2    4 am   BACKBONE|DICT|INTERRES
     7    4    5 1    
     8    4   70 1    
     9    5    6 1    
    10    5   65 1    
    11    5   71 1    
    12    6    7 1    
    13    6   72 1    
    14    6   73 1    
    15    7    8 1    
    16    8    9 1    
    17    8   74 1    
    18    8   75 1    
    19    9   10 ar   
    20    9   14 ar   
    21   10   11 ar   
    22   10   76 1    
    23   11   12 ar   
    24   11   48 1    
    25   12   13 ar   
    26   12   77 1    
    27   13   14 ar   
    28   13   15 1    
    29   14   78 1    
    30   15   16 1    
    31   15   79 1    
    32   15   80 1    
    33   16   17 1    
    34   17   18 1    
    35   17   81 1    
    36   17   82 1    
    37   18   19 1    
    38   18   22 1    
    39   18   83 1    
    40   19   20 am   BACKBONE|DICT|INTERRES
    41   19   21 2    
    42   20   84 1    
    43   20   85 1    
    44   22   23 am   BACKBONE|DICT|INTERRES
    45   22   86 1    
    46   23   24 2    
    47   23   25 1    
    48   25   26 1    
    49   25   27 1    
    50   25   87 1    
    51   26   88 1    
    52   26   89 1    
    53   26   90 1    
    54   27   28 am   BACKBONE|DICT|INTERRES
    55   27   91 1    
    56   28   29 2    
    57   28   30 1    
    58   30   31 1    
    59   30   32 1    
    60   30   92 1    
    61   31   93 1    
    62   31   94 1    
    63   31   95 1    
    64   32   33 am   BACKBONE|DICT|INTERRES
    65   32   96 1    
    66   33   34 2    
    67   33   35 1    
    68   35   36 1    
    69   35   37 1    
    70   35   97 1    
    71   36   98 1    
    72   36   99 1    
    73   36  100 1    
    74   37   38 am   BACKBONE|DICT|INTERRES
    75   37  101 1    
    76   38   39 2    
    77   38   40 1    
    78   40   41 1    
    79   40   42 1    
    80   40  102 1    
    81   41  103 1    
    82   41  104 1    
    83   41  105 1    
    84   42   43 am   BACKBONE|DICT|INTERRES
    85   42  106 1    
    86   43   44 2    
    87   43   45 1    
    88   45   46 1    
    89   45   49 1    
    90   45  107 1    
    91   46   47 1    
    92   46  108 1    
    93   46  109 1    
    94   47   48 1    
    95   48  110 1    
    96   48  111 1    
    97   49   50 am   BACKBONE|DICT|INTERRES
    98   49  112 1    
    99   50   51 2    
   100   50   52 1    
   101   52   53 1    
   102   52   54 1    
   103   52  113 1    
   104   53  114 1    
   105   53  115 1    
   106   53  116 1    
   107   54   55 am   BACKBONE|DICT|INTERRES
   108   54  117 1    
   109   55   56 2    
   110   55   57 1    
   111   57   58 1    
   112   57   59 1    
   113   57  118 1    
   114   58  119 1    
   115   58  120 1    
   116   58  121 1    
   117   59   60 am   BACKBONE|DICT|INTERRES
   118   59  122 1    
   119   60   61 2    
   120   60   62 1    
   121   62   63 1    
   122   62   64 1    
   123   62  123 1    
   124   63  124 1    
   125   63  125 1    
   126   63  126 1    
   127   64   65 am   BACKBONE|DICT|INTERRES
   128   64  127 1    
   129   65   66 2    
@<TRIPOS>SUBSTRUCTURE
     1 UNK         1 GROUP             0       ****    0 ROOT    
