@<TRIPOS>MOLECULE
3R135
127   129    1
SMALL
USER_CHARGES


@<TRIPOS>ATOM
      1 CA        -83.7827   26.8699  -71.6255 C.3       0 UNK        -0.1998 
      2 C         -82.6584   27.0062  -72.6405 C.2       0 UNK         0.4909 
      3 O         -81.6582   26.2976  -72.5363 O.2       0 UNK        -0.5240 
      4 N         -82.8208   27.9141  -73.6153 N.am      1 UNK        -0.4739 
      5 CA        -81.8659   28.2225  -74.6948 C.3       1 UNK         0.0864 
      6 C6        -80.5371   28.8498  -74.1854 C.3       11 UNK        -0.0881 
      7 S7        -80.7929   30.4640  -73.3689 S.3       11 UNK        -0.2682 
      8 C8        -80.6561   30.0553  -71.5975 C.3       11 UNK         0.0289 
      9 C9        -79.2616   29.5812  -71.2133 C.ar      11 UNK        -0.0687 
     10 C10       -79.0384   28.2397  -70.8863 C.ar      11 UNK        -0.0823 
     11 C11       -77.7594   27.7940  -70.5381 C.ar      11 UNK        -0.0830 
     12 C12       -76.7061   28.7137  -70.4884 C.ar      11 UNK        -0.1021 
     13 C13       -76.9076   30.0454  -70.8586 C.ar      11 UNK        -0.0753 
     14 C14       -78.1913   30.4806  -71.1986 C.ar      11 UNK        -0.0933 
     15 C15       -75.7217   30.9887  -70.9561 C.3       11 UNK         0.0166 
     16 S16       -75.0759   31.0017  -72.6611 S.3       11 UNK        -0.2615 
     17 C17       -73.2904   31.2763  -72.3873 C.3       11 UNK        -0.0865 
     18 CA        -72.4125   30.0318  -72.7006 C.3       10 UNK         0.0862 
     19 C         -72.6220   28.8471  -71.7148 C.2       10 UNK         0.5551 
     20 N         -72.6675   27.6042  -72.1776 N.am      10 UNK        -0.7319 
     21 O         -72.7109   29.0533  -70.5072 O.2       10 UNK        -0.5018 
     22 N         -72.4685   29.6451  -74.1210 N.am      10 UNK        -0.4509 
     23 C         -71.7048   30.1661  -75.0875 C.2       10 UNK         0.4899 
     24 O         -70.8700   31.0537  -74.9007 O.2       10 UNK        -0.4839 
     25 CA        -71.9121   29.5811  -76.4969 C.3       9 UNK         0.0222 
     26 CB        -70.9960   30.2142  -77.5658 C.3       9 UNK        -0.1966 
     27 N         -71.8040   28.1184  -76.5069 N.am      9 UNK        -0.4218 
     28 C         -70.7385   27.3604  -76.2049 C.2       9 UNK         0.5020 
     29 O         -69.6329   27.8093  -75.9001 O.2       9 UNK        -0.5274 
     30 CA        -70.9353   25.8309  -76.2363 C.3       8 UNK         0.0270 
     31 CB        -71.0923   25.2772  -74.8108 C.3       8 UNK        -0.1976 
     32 N         -72.0822   25.3993  -77.0407 N.am      8 UNK        -0.4313 
     33 C         -72.1464   25.4553  -78.3785 C.2       8 UNK         0.5041 
     34 O         -71.2117   25.8091  -79.0981 O.2       8 UNK        -0.5577 
     35 CA        -73.4965   25.0889  -79.0154 C.3       7 UNK         0.0284 
     36 CB        -73.6486   23.5650  -79.1534 C.3       7 UNK        -0.1958 
     37 N         -74.6201   25.6358  -78.2501 N.am      7 UNK        -0.4454 
     38 C         -74.9661   26.9311  -78.2367 C.2       7 UNK         0.5089 
     39 O         -74.4167   27.7947  -78.9199 O.2       7 UNK        -0.5125 
     40 CA        -76.0957   27.3404  -77.2778 C.3       6 UNK         0.0408 
     41 CB        -77.4624   27.2130  -77.9660 C.3       6 UNK        -0.1791 
     42 N         -76.0930   26.5613  -76.0377 N.am      6 UNK        -0.4762 
     43 C         -75.1827   26.7086  -75.0619 C.2       6 UNK         0.5007 
     44 O         -74.2689   27.5333  -75.0960 O.2       6 UNK        -0.5032 
     45 CA        -75.2846   25.7680  -73.8445 C.3       5 UNK         0.0783 
     46 C46       -76.2002   26.4153  -72.7863 C.3       11 UNK        -0.0857 
     47 S47       -76.0753   25.6143  -71.1531 S.3       11 UNK        -0.2512 
     48 C48       -77.5201   26.3095  -70.2680 C.3       11 UNK         0.0225 
     49 N         -75.7245   24.4162  -74.1914 N.am      5 UNK        -0.4615 
     50 C         -75.1658   23.6169  -75.1096 C.2       4 UNK         0.5053 
     51 O         -74.1228   23.8892  -75.7043 O.2       4 UNK        -0.5105 
     52 CA        -75.9286   22.3294  -75.4765 C.3       4 UNK         0.0263 
     53 CB        -75.2545   21.1094  -74.8299 C.3       4 UNK        -0.1981 
     54 N         -77.3562   22.3427  -75.1215 N.am      4 UNK        -0.4224 
     55 C         -78.2598   23.2374  -75.5495 C.2       3 UNK         0.4895 
     56 O         -77.9942   24.1722  -76.3115 O.2       3 UNK        -0.5091 
     57 CA        -79.6723   23.0971  -74.9706 C.3       3 UNK         0.0250 
     58 CB        -79.6924   23.4596  -73.4722 C.3       3 UNK        -0.1996 
     59 N         -80.5739   23.9885  -75.6911 N.am      3 UNK        -0.4254 
     60 C         -81.8888   23.8206  -75.8522 C.2       2 UNK         0.5004 
     61 O         -82.5151   22.8549  -75.4103 O.2       2 UNK        -0.5226 
     62 CA        -82.6258   24.9441  -76.6074 C.3       2 UNK         0.0269 
     63 CB        -84.0674   24.5559  -76.9871 C.3       2 UNK        -0.1926 
     64 N         -82.6625   26.1746  -75.8127 N.am      2 UNK        -0.4687 
     65 C         -81.6365   27.0224  -75.6454 C.2       1 UNK         0.5165 
     66 O         -80.5539   26.8795  -76.2162 O.2       1 UNK        -0.5079 
     67 H67       -84.1781   25.8546  -71.6390 H         1 UNK         0.0900 
     68 H68       -84.6036   27.5572  -71.8293 H         1 UNK         0.0900 
     69 H69       -83.4083   27.0766  -70.6233 H         1 UNK         0.0900 
     70 H70       -83.6693   28.4635  -73.6318 H         1 UNK         0.2959 
     71 H71       -82.3544   28.9724  -75.3192 H         1 UNK         0.1079 
     72 H72       -80.0087   28.1619  -73.5253 H         1 UNK         0.0837 
     73 H73       -79.8568   29.0359  -75.0186 H         1 UNK         0.0837 
     74 H74       -81.4072   29.3094  -71.3372 H         1 UNK         0.0685 
     75 H75       -80.9006   30.9447  -71.0152 H         1 UNK         0.0685 
     76 H76       -79.8599   27.5370  -70.9263 H         1 UNK         0.1434 
     77 H77       -75.7098   28.3751  -70.2363 H         1 UNK         0.1329 
     78 H78       -78.3520   31.5105  -71.4868 H         1 UNK         0.1335 
     79 H79       -74.9462   30.6749  -70.2561 H         1 UNK         0.0680 
     80 H80       -76.0108   32.0003  -70.6675 H         1 UNK         0.0680 
     81 H81       -72.9800   32.1065  -73.0233 H         1 UNK         0.1032 
     82 H82       -73.1141   31.6207  -71.3669 H         1 UNK         0.1032 
     83 H83       -71.3820   30.3282  -72.4962 H         1 UNK         0.0461 
     84 H84       -72.7839   26.8468  -71.5237 H         1 UNK         0.3453 
     85 H85       -72.5505   27.4230  -73.1595 H         1 UNK         0.3453 
     86 H86       -73.1588   28.9406  -74.3673 H         1 UNK         0.2984 
     87 H87       -72.9427   29.8085  -76.7743 H         1 UNK         0.0554 
     88 H88       -71.1933   29.7960  -78.5529 H         1 UNK         0.0847 
     89 H89       -69.9401   30.0608  -77.3414 H         1 UNK         0.0847 
     90 H90       -71.1601   31.2904  -77.6307 H         1 UNK         0.0847 
     91 H91       -72.6772   27.6323  -76.6636 H         1 UNK         0.3141 
     92 H92       -70.0333   25.3973  -76.6731 H         1 UNK         0.0743 
     93 H93       -70.2545   25.5740  -74.1782 H         1 UNK         0.0784 
     94 H94       -72.0051   25.6376  -74.3383 H         1 UNK         0.0784 
     95 H95       -71.1274   24.1875  -74.8120 H         1 UNK         0.0784 
     96 H96       -72.8748   25.0050  -76.5370 H         1 UNK         0.3213 
     97 H97       -73.5209   25.5225  -80.0178 H         1 UNK         0.0855 
     98 H98       -73.6217   23.0602  -78.1875 H         1 UNK         0.0814 
     99 H99       -72.8413   23.1492  -79.7580 H         1 UNK         0.0814 
    100 H100      -74.5865   23.3027  -79.6431 H         1 UNK         0.0814 
    101 H101      -75.1027   25.0042  -77.6264 H         1 UNK         0.3105 
    102 H102      -75.9463   28.3914  -77.0204 H         1 UNK         0.0547 
    103 H103      -77.7006   26.1771  -78.2102 H         1 UNK         0.0837 
    104 H104      -78.2586   27.5990  -77.3304 H         1 UNK         0.0837 
    105 H105      -77.4877   27.7829  -78.8957 H         1 UNK         0.0837 
    106 H106      -76.7996   25.8366  -75.9529 H         1 UNK         0.3020 
    107 H107      -74.2802   25.6763  -73.4294 H         1 UNK         0.1245 
    108 H108      -77.2420   26.4095  -73.1146 H         1 UNK         0.0781 
    109 H109      -75.9237   27.4633  -72.6588 H         1 UNK         0.0781 
    110 H110      -78.3984   25.7266  -70.5506 H         1 UNK         0.0836 
    111 H111      -77.3842   26.1603  -69.1962 H         1 UNK         0.0836 
    112 H112      -76.5661   24.0979  -73.7362 H         1 UNK         0.3022 
    113 H113      -75.8642   22.2217  -76.5612 H         1 UNK         0.0747 
    114 H114      -74.1983   21.0584  -75.0995 H         1 UNK         0.0793 
    115 H115      -75.7151   20.1783  -75.1605 H         1 UNK         0.0793 
    116 H116      -75.3111   21.1465  -73.7412 H         1 UNK         0.0793 
    117 H117      -77.6631   21.6154  -74.4909 H         1 UNK         0.3047 
    118 H118      -79.9956   22.0630  -75.1082 H         1 UNK         0.0822 
    119 H119      -79.0447   22.8039  -72.8896 H         1 UNK         0.0807 
    120 H120      -80.6964   23.3679  -73.0568 H         1 UNK         0.0807 
    121 H121      -79.3622   24.4859  -73.3025 H         1 UNK         0.0807 
    122 H122      -80.1324   24.8155  -76.0839 H         1 UNK         0.2946 
    123 H123      -82.0760   25.1327  -77.5327 H         1 UNK         0.1144 
    124 H124      -84.6842   24.3731  -76.1062 H         1 UNK         0.0793 
    125 H125      -84.0803   23.6463  -77.5891 H         1 UNK         0.0793 
    126 H126      -84.5467   25.3385  -77.5755 H         1 UNK         0.0793 
    127 H127      -83.5039   26.3436  -75.2807 H         1 UNK         0.2896 
@<TRIPOS>BOND
     1    1    2 1    
     2    1   67 1    
     3    1   68 1    
     4    1   69 1    
     5    2    3 2    
     6    2    4 am   BACKBONE|DICT|INTERRES
     7    4    5 1    
     8    4   70 1    
     9    5    6 1    
    10    5   65 1    
    11    5   71 1    
    12    6    7 1    
    13    6   72 1    
    14    6   73 1    
    15    7    8 1    
    16    8    9 1    
    17    8   74 1    
    18    8   75 1    
    19    9   10 ar   
    20    9   14 ar   
    21   10   11 ar   
    22   10   76 1    
    23   11   12 ar   
    24   11   48 1    
    25   12   13 ar   
    26   12   77 1    
    27   13   14 ar   
    28   13   15 1    
    29   14   78 1    
    30   15   16 1    
    31   15   79 1    
    32   15   80 1    
    33   16   17 1    
    34   17   18 1    
    35   17   81 1    
    36   17   82 1    
    37   18   19 1    
    38   18   22 1    
    39   18   83 1    
    40   19   20 am   BACKBONE|DICT|INTERRES
    41   19   21 2    
    42   20   84 1    
    43   20   85 1    
    44   22   23 am   BACKBONE|DICT|INTERRES
    45   22   86 1    
    46   23   24 2    
    47   23   25 1    
    48   25   26 1    
    49   25   27 1    
    50   25   87 1    
    51   26   88 1    
    52   26   89 1    
    53   26   90 1    
    54   27   28 am   BACKBONE|DICT|INTERRES
    55   27   91 1    
    56   28   29 2    
    57   28   30 1    
    58   30   31 1    
    59   30   32 1    
    60   30   92 1    
    61   31   93 1    
    62   31   94 1    
    63   31   95 1    
    64   32   33 am   BACKBONE|DICT|INTERRES
    65   32   96 1    
    66   33   34 2    
    67   33   35 1    
    68   35   36 1    
    69   35   37 1    
    70   35   97 1    
    71   36   98 1    
    72   36   99 1    
    73   36  100 1    
    74   37   38 am   BACKBONE|DICT|INTERRES
    75   37  101 1    
    76   38   39 2    
    77   38   40 1    
    78   40   41 1    
    79   40   42 1    
    80   40  102 1    
    81   41  103 1    
    82   41  104 1    
    83   41  105 1    
    84   42   43 am   BACKBONE|DICT|INTERRES
    85   42  106 1    
    86   43   44 2    
    87   43   45 1    
    88   45   46 1    
    89   45   49 1    
    90   45  107 1    
    91   46   47 1    
    92   46  108 1    
    93   46  109 1    
    94   47   48 1    
    95   48  110 1    
    96   48  111 1    
    97   49   50 am   BACKBONE|DICT|INTERRES
    98   49  112 1    
    99   50   51 2    
   100   50   52 1    
   101   52   53 1    
   102   52   54 1    
   103   52  113 1    
   104   53  114 1    
   105   53  115 1    
   106   53  116 1    
   107   54   55 am   BACKBONE|DICT|INTERRES
   108   54  117 1    
   109   55   56 2    
   110   55   57 1    
   111   57   58 1    
   112   57   59 1    
   113   57  118 1    
   114   58  119 1    
   115   58  120 1    
   116   58  121 1    
   117   59   60 am   BACKBONE|DICT|INTERRES
   118   59  122 1    
   119   60   61 2    
   120   60   62 1    
   121   62   63 1    
   122   62   64 1    
   123   62  123 1    
   124   63  124 1    
   125   63  125 1    
   126   63  126 1    
   127   64   65 am   BACKBONE|DICT|INTERRES
   128   64  127 1    
   129   65   66 2    
@<TRIPOS>SUBSTRUCTURE
     1 UNK         1 GROUP             0       ****    0 ROOT    
