@<TRIPOS>MOLECULE
3R135
127   129    1
SMALL
USER_CHARGES


@<TRIPOS>ATOM
      1 CA        -79.4470   22.4104  -69.3622 C.3       0 UNK        -0.1998 
      2 C         -80.2586   23.3893  -70.1974 C.2       0 UNK         0.4909 
      3 O         -81.4810   23.2591  -70.2784 O.2       0 UNK        -0.5240 
      4 N         -79.5891   24.3741  -70.8090 N.am      1 UNK        -0.4739 
      5 CA        -80.1928   25.3747  -71.6974 C.3       1 UNK         0.0864 
      6 C6        -79.2443   26.5768  -71.9448 C.3       11 UNK        -0.0881 
      7 S7        -78.6833   27.3667  -70.3960 S.3       11 UNK        -0.2682 
      8 C8        -79.3998   29.0346  -70.5249 C.3       11 UNK         0.0289 
      9 C9        -78.7101   29.8648  -71.5982 C.ar      11 UNK        -0.0687 
     10 C10       -79.3333   30.0804  -72.8298 C.ar      11 UNK        -0.0823 
     11 C11       -78.7093   30.8500  -73.8137 C.ar      11 UNK        -0.0830 
     12 C12       -77.4531   31.4067  -73.5568 C.ar      11 UNK        -0.1021 
     13 C13       -76.8102   31.1985  -72.3322 C.ar      11 UNK        -0.0753 
     14 C14       -77.4543   30.4299  -71.3524 C.ar      11 UNK        -0.0933 
     15 C15       -75.4412   31.8461  -72.1164 C.3       11 UNK         0.0166 
     16 S16       -74.4209   31.1171  -70.7877 S.3       11 UNK        -0.2615 
     17 C17       -72.7917   31.8415  -71.1872 C.3       11 UNK        -0.0865 
     18 CA        -71.7673   30.8868  -71.8755 C.3       10 UNK         0.0862 
     19 C         -71.0984   29.8435  -70.9252 C.2       10 UNK         0.5551 
     20 N         -70.5698   28.7374  -71.4356 N.am      10 UNK        -0.7319 
     21 O         -71.0079   30.0585  -69.7186 O.2       10 UNK        -0.5018 
     22 N         -72.2063   30.3974  -73.1986 N.am      10 UNK        -0.4509 
     23 C         -72.9871   29.3397  -73.4679 C.2       10 UNK         0.4899 
     24 O         -73.4793   28.5996  -72.6154 O.2       10 UNK        -0.4839 
     25 CA        -73.2698   29.0313  -74.9506 C.3       9 UNK         0.0222 
     26 CB        -72.5347   29.9423  -75.9609 C.3       9 UNK        -0.1966 
     27 N         -73.0269   27.6152  -75.2418 N.am      9 UNK        -0.4218 
     28 C         -71.8679   26.9519  -75.1141 C.2       9 UNK         0.5020 
     29 O         -70.7996   27.4849  -74.8076 O.2       9 UNK        -0.5274 
     30 CA        -71.8956   25.4351  -75.3521 C.3       8 UNK         0.0270 
     31 CB        -72.2594   24.6959  -74.0526 C.3       8 UNK        -0.1976 
     32 N         -72.8354   25.0460  -76.4105 N.am      8 UNK        -0.4313 
     33 C         -72.5014   24.3281  -77.4911 C.2       8 UNK         0.5041 
     34 O         -71.3528   23.9554  -77.7370 O.2       8 UNK        -0.5577 
     35 CA        -73.6244   23.9232  -78.4619 C.3       7 UNK         0.0284 
     36 CB        -74.2163   22.5599  -78.0690 C.3       7 UNK        -0.1958 
     37 N         -74.7010   24.9079  -78.5992 N.am      7 UNK        -0.4454 
     38 C         -74.5766   26.0517  -79.2884 C.2       7 UNK         0.5089 
     39 O         -73.5151   26.4548  -79.7646 O.2       7 UNK        -0.5125 
     40 CA        -75.8581   26.8673  -79.5166 C.3       6 UNK         0.0408 
     41 CB        -76.7283   26.2203  -80.6068 C.3       6 UNK        -0.1791 
     42 N         -76.6361   27.0039  -78.2879 N.am      6 UNK        -0.4762 
     43 C         -76.4258   27.9574  -77.3688 C.2       6 UNK         0.5007 
     44 O         -75.5812   28.8443  -77.4899 O.2       6 UNK        -0.5032 
     45 CA        -77.2808   27.8843  -76.0809 C.3       5 UNK         0.0783 
     46 C46       -78.6445   28.5997  -76.2639 C.3       11 UNK        -0.0857 
     47 S47       -78.4987   30.3986  -76.5515 S.3       11 UNK        -0.2512 
     48 C48       -79.4064   31.1062  -75.1420 C.3       11 UNK         0.0225 
     49 N         -77.4632   26.4955  -75.6344 N.am      5 UNK        -0.4615 
     50 C         -76.4588   25.6634  -75.3116 C.2       4 UNK         0.5053 
     51 O         -75.2828   26.0162  -75.2544 O.2       4 UNK        -0.5105 
     52 CA        -76.7762   24.1719  -75.1044 C.3       4 UNK         0.0263 
     53 CB        -76.7368   23.7826  -73.6196 C.3       4 UNK        -0.1981 
     54 N         -78.0358   23.7487  -75.7217 N.am      4 UNK        -0.4224 
     55 C         -78.2400   23.7306  -77.0495 C.2       3 UNK         0.4895 
     56 O         -77.3659   24.0193  -77.8694 O.2       3 UNK        -0.5091 
     57 CA        -79.6529   23.3926  -77.5603 C.3       3 UNK         0.0250 
     58 CB        -79.7279   21.9161  -77.9784 C.3       3 UNK        -0.1996 
     59 N         -80.7313   23.6838  -76.6093 N.am      3 UNK        -0.4254 
     60 C         -81.0019   24.8872  -76.0831 C.2       2 UNK         0.5004 
     61 O         -80.3623   25.9056  -76.3487 O.2       2 UNK        -0.5226 
     62 CA        -82.1259   24.9709  -75.0311 C.3       2 UNK         0.0269 
     63 CB        -82.9815   23.6882  -74.9115 C.3       2 UNK        -0.1926 
     64 N         -81.5968   25.3561  -73.7144 N.am      2 UNK        -0.4687 
     65 C         -80.6160   24.7368  -73.0387 C.2       1 UNK         0.5165 
     66 O         -80.0291   23.7326  -73.4548 O.2       1 UNK        -0.5079 
     67 H67       -78.3843   22.6522  -69.3691 H         1 UNK         0.0900 
     68 H68       -79.5668   21.3989  -69.7494 H         1 UNK         0.0900 
     69 H69       -79.7911   22.4234  -68.3283 H         1 UNK         0.0900 
     70 H70       -78.5873   24.4363  -70.7026 H         1 UNK         0.2959 
     71 H71       -81.0959   25.7464  -71.2076 H         1 UNK         0.1079 
     72 H72       -79.7394   27.3184  -72.5719 H         1 UNK         0.0837 
     73 H73       -78.3559   26.2752  -72.4995 H         1 UNK         0.0837 
     74 H74       -80.4714   28.9576  -70.7158 H         1 UNK         0.0685 
     75 H75       -79.2978   29.5358  -69.5613 H         1 UNK         0.0685 
     76 H76       -80.3095   29.6557  -73.0193 H         1 UNK         0.1434 
     77 H77       -76.9749   32.0072  -74.3191 H         1 UNK         0.1329 
     78 H78       -76.9870   30.2618  -70.3926 H         1 UNK         0.1335 
     79 H79       -74.8775   31.7874  -73.0488 H         1 UNK         0.0680 
     80 H80       -75.5849   32.9065  -71.9051 H         1 UNK         0.0680 
     81 H81       -72.3700   32.2427  -70.2640 H         1 UNK         0.1032 
     82 H82       -72.9414   32.7168  -71.8207 H         1 UNK         0.1032 
     83 H83       -70.9224   31.5295  -72.1259 H         1 UNK         0.0461 
     84 H84       -70.1237   28.0739  -70.8227 H         1 UNK         0.3453 
     85 H85       -70.6441   28.5453  -72.4238 H         1 UNK         0.3453 
     86 H86       -71.8301   30.9052  -73.9856 H         1 UNK         0.2984 
     87 H87       -74.3400   29.1897  -75.0854 H         1 UNK         0.0554 
     88 H88       -72.7971   29.6717  -76.9841 H         1 UNK         0.0847 
     89 H89       -71.4501   29.8728  -75.8718 H         1 UNK         0.0847 
     90 H90       -72.8179   30.9875  -75.8315 H         1 UNK         0.0847 
     91 H91       -73.8714   27.0592  -75.3651 H         1 UNK         0.3141 
     92 H92       -70.8779   25.1470  -75.6233 H         1 UNK         0.0743 
     93 H93       -73.2644   24.9465  -73.7111 H         1 UNK         0.0784 
     94 H94       -72.2104   23.6151  -74.1856 H         1 UNK         0.0784 
     95 H95       -71.5686   24.9561  -73.2494 H         1 UNK         0.0784 
     96 H96       -73.8038   25.3197  -76.2767 H         1 UNK         0.3213 
     97 H97       -73.1650   23.8038  -79.4461 H         1 UNK         0.0855 
     98 H98       -74.6561   22.5766  -77.0736 H         1 UNK         0.0814 
     99 H99       -73.4441   21.7893  -78.0663 H         1 UNK         0.0814 
    100 H100      -74.9873   22.2424  -78.7714 H         1 UNK         0.0814 
    101 H101      -75.6264   24.6296  -78.2798 H         1 UNK         0.3105 
    102 H102      -75.5680   27.8585  -79.8721 H         1 UNK         0.0547 
    103 H103      -76.1717   26.1196  -81.5394 H         1 UNK         0.0837 
    104 H104      -77.0688   25.2240  -80.3225 H         1 UNK         0.0837 
    105 H105      -77.6091   26.8258  -80.8205 H         1 UNK         0.0837 
    106 H106      -77.3074   26.2729  -78.0903 H         1 UNK         0.3020 
    107 H107      -76.7286   28.4029  -75.2936 H         1 UNK         0.1245 
    108 H108      -79.2687   28.4307  -75.3853 H         1 UNK         0.0781 
    109 H109      -79.1943   28.1691  -77.1027 H         1 UNK         0.0781 
    110 H110      -80.4240   30.7122  -75.1378 H         1 UNK         0.0836 
    111 H111      -79.4986   32.1831  -75.2898 H         1 UNK         0.0836 
    112 H112      -78.4061   26.1280  -75.7095 H         1 UNK         0.3022 
    113 H113      -75.9759   23.6177  -75.5939 H         1 UNK         0.0747 
    114 H114      -76.8635   22.7077  -73.4900 H         1 UNK         0.0793 
    115 H115      -75.7792   24.0518  -73.1716 H         1 UNK         0.0793 
    116 H116      -77.5133   24.2786  -73.0443 H         1 UNK         0.0793 
    117 H117      -78.8065   23.5383  -75.0942 H         1 UNK         0.3047 
    118 H118      -79.8260   24.0082  -78.4455 H         1 UNK         0.0822 
    119 H119      -80.6864   21.6819  -78.4420 H         1 UNK         0.0807 
    120 H120      -79.5928   21.2480  -77.1268 H         1 UNK         0.0807 
    121 H121      -78.9515   21.6766  -78.7068 H         1 UNK         0.0807 
    122 H122      -81.2849   22.8979  -76.3005 H         1 UNK         0.2946 
    123 H123      -82.7824   25.7786  -75.3597 H         1 UNK         0.1144 
    124 H124      -83.8078   23.8377  -74.2164 H         1 UNK         0.0793 
    125 H125      -82.4055   22.8350  -74.5513 H         1 UNK         0.0793 
    126 H126      -83.4226   23.4149  -75.8712 H         1 UNK         0.0793 
    127 H127      -81.9988   26.1944  -73.3180 H         1 UNK         0.2896 
@<TRIPOS>BOND
     1    1    2 1    
     2    1   67 1    
     3    1   68 1    
     4    1   69 1    
     5    2    3 2    
     6    2    4 am   BACKBONE|DICT|INTERRES
     7    4    5 1    
     8    4   70 1    
     9    5    6 1    
    10    5   65 1    
    11    5   71 1    
    12    6    7 1    
    13    6   72 1    
    14    6   73 1    
    15    7    8 1    
    16    8    9 1    
    17    8   74 1    
    18    8   75 1    
    19    9   10 ar   
    20    9   14 ar   
    21   10   11 ar   
    22   10   76 1    
    23   11   12 ar   
    24   11   48 1    
    25   12   13 ar   
    26   12   77 1    
    27   13   14 ar   
    28   13   15 1    
    29   14   78 1    
    30   15   16 1    
    31   15   79 1    
    32   15   80 1    
    33   16   17 1    
    34   17   18 1    
    35   17   81 1    
    36   17   82 1    
    37   18   19 1    
    38   18   22 1    
    39   18   83 1    
    40   19   20 am   BACKBONE|DICT|INTERRES
    41   19   21 2    
    42   20   84 1    
    43   20   85 1    
    44   22   23 am   BACKBONE|DICT|INTERRES
    45   22   86 1    
    46   23   24 2    
    47   23   25 1    
    48   25   26 1    
    49   25   27 1    
    50   25   87 1    
    51   26   88 1    
    52   26   89 1    
    53   26   90 1    
    54   27   28 am   BACKBONE|DICT|INTERRES
    55   27   91 1    
    56   28   29 2    
    57   28   30 1    
    58   30   31 1    
    59   30   32 1    
    60   30   92 1    
    61   31   93 1    
    62   31   94 1    
    63   31   95 1    
    64   32   33 am   BACKBONE|DICT|INTERRES
    65   32   96 1    
    66   33   34 2    
    67   33   35 1    
    68   35   36 1    
    69   35   37 1    
    70   35   97 1    
    71   36   98 1    
    72   36   99 1    
    73   36  100 1    
    74   37   38 am   BACKBONE|DICT|INTERRES
    75   37  101 1    
    76   38   39 2    
    77   38   40 1    
    78   40   41 1    
    79   40   42 1    
    80   40  102 1    
    81   41  103 1    
    82   41  104 1    
    83   41  105 1    
    84   42   43 am   BACKBONE|DICT|INTERRES
    85   42  106 1    
    86   43   44 2    
    87   43   45 1    
    88   45   46 1    
    89   45   49 1    
    90   45  107 1    
    91   46   47 1    
    92   46  108 1    
    93   46  109 1    
    94   47   48 1    
    95   48  110 1    
    96   48  111 1    
    97   49   50 am   BACKBONE|DICT|INTERRES
    98   49  112 1    
    99   50   51 2    
   100   50   52 1    
   101   52   53 1    
   102   52   54 1    
   103   52  113 1    
   104   53  114 1    
   105   53  115 1    
   106   53  116 1    
   107   54   55 am   BACKBONE|DICT|INTERRES
   108   54  117 1    
   109   55   56 2    
   110   55   57 1    
   111   57   58 1    
   112   57   59 1    
   113   57  118 1    
   114   58  119 1    
   115   58  120 1    
   116   58  121 1    
   117   59   60 am   BACKBONE|DICT|INTERRES
   118   59  122 1    
   119   60   61 2    
   120   60   62 1    
   121   62   63 1    
   122   62   64 1    
   123   62  123 1    
   124   63  124 1    
   125   63  125 1    
   126   63  126 1    
   127   64   65 am   BACKBONE|DICT|INTERRES
   128   64  127 1    
   129   65   66 2    
@<TRIPOS>SUBSTRUCTURE
     1 UNK         1 GROUP             0       ****    0 ROOT    
