@<TRIPOS>MOLECULE
3R135
127   129    1
SMALL
USER_CHARGES


@<TRIPOS>ATOM
      1 CA        -84.2224   27.2902  -71.1766 C.3       0 UNK        -0.1998 
      2 C         -83.7747   27.6491  -72.5855 C.2       0 UNK         0.4909 
      3 O         -84.5950   27.6648  -73.5036 O.2       0 UNK        -0.5240 
      4 N         -82.4790   27.9400  -72.7605 N.am      1 UNK        -0.4739 
      5 CA        -81.8637   28.2893  -74.0489 C.3       1 UNK         0.0864 
      6 C6        -80.4743   28.9465  -73.8636 C.3       11 UNK        -0.0881 
      7 S7        -80.5779   30.5742  -73.0369 S.3       11 UNK        -0.2682 
      8 C8        -80.2447   30.1903  -71.2844 C.3       11 UNK         0.0289 
      9 C9        -78.8328   29.6683  -71.0655 C.ar      11 UNK        -0.0687 
     10 C10       -78.6115   28.3057  -70.8460 C.ar      11 UNK        -0.0823 
     11 C11       -77.3125   27.8104  -70.6968 C.ar      11 UNK        -0.0830 
     12 C12       -76.2331   28.6995  -70.7292 C.ar      11 UNK        -0.1021 
     13 C13       -76.4434   30.0692  -70.9190 C.ar      11 UNK        -0.0753 
     14 C14       -77.7462   30.5474  -71.0869 C.ar      11 UNK        -0.0933 
     15 C15       -75.2668   31.0339  -70.9300 C.3       11 UNK         0.0166 
     16 S16       -74.9269   31.6691  -72.6025 S.3       11 UNK        -0.2615 
     17 C17       -73.3413   32.5374  -72.3204 C.3       11 UNK        -0.0865 
     18 CA        -72.1549   31.9305  -73.1186 C.3       10 UNK         0.0862 
     19 C         -70.8344   32.6655  -72.7575 C.2       10 UNK         0.5551 
     20 N         -70.4529   33.6733  -73.5300 N.am      10 UNK        -0.7319 
     21 O         -70.1868   32.3620  -71.7571 O.2       10 UNK        -0.5018 
     22 N         -72.0888   30.4725  -72.9453 N.am      10 UNK        -0.4509 
     23 C         -71.2205   29.6285  -73.5152 C.2       10 UNK         0.4899 
     24 O         -70.2829   29.9802  -74.2348 O.2       10 UNK        -0.4839 
     25 CA        -71.4337   28.1271  -73.2179 C.3       9 UNK         0.0222 
     26 CB        -72.8648   27.7827  -72.7379 C.3       9 UNK        -0.1966 
     27 N         -71.0635   27.2517  -74.3375 N.am      9 UNK        -0.4218 
     28 C         -71.5329   27.2826  -75.5950 C.2       9 UNK         0.5020 
     29 O         -72.3048   28.1410  -76.0282 O.2       9 UNK        -0.5274 
     30 CA        -71.0785   26.1544  -76.5366 C.3       8 UNK         0.0270 
     31 CB        -70.2566   25.0345  -75.8564 C.3       8 UNK        -0.1976 
     32 N         -72.2624   25.5871  -77.1796 N.am      8 UNK        -0.4313 
     33 C         -72.2788   24.9801  -78.3736 C.2       8 UNK         0.5041 
     34 O         -71.2705   24.8135  -79.0626 O.2       8 UNK        -0.5577 
     35 CA        -73.6287   24.4528  -78.9044 C.3       7 UNK         0.0284 
     36 CB        -73.7186   22.9304  -78.7067 C.3       7 UNK        -0.1958 
     37 N         -74.8057   25.0781  -78.2976 N.am      7 UNK        -0.4454 
     38 C         -75.1393   26.3707  -78.4071 C.2       7 UNK         0.5089 
     39 O         -74.5466   27.1693  -79.1333 O.2       7 UNK        -0.5125 
     40 CA        -76.3172   26.8701  -77.5488 C.3       6 UNK         0.0408 
     41 CB        -77.5920   26.9756  -78.3989 C.3       6 UNK        -0.1791 
     42 N         -76.6025   26.0721  -76.3490 N.am      6 UNK        -0.4762 
     43 C         -75.7467   25.8303  -75.3425 C.2       6 UNK         0.5007 
     44 O         -74.5572   26.1373  -75.3592 O.2       6 UNK        -0.5032 
     45 CA        -76.3179   25.0988  -74.1194 C.3       5 UNK         0.0783 
     46 C46       -77.2726   26.0341  -73.3411 C.3       11 UNK        -0.0857 
     47 S47       -77.8967   25.2962  -71.7947 S.3       11 UNK        -0.2512 
     48 C48       -77.0657   26.3138  -70.5241 C.3       11 UNK         0.0225 
     49 N         -76.9544   23.8569  -74.5560 N.am      5 UNK        -0.4615 
     50 C         -76.2861   22.7289  -74.8328 C.2       4 UNK         0.5053 
     51 O         -75.0816   22.5793  -74.6274 O.2       4 UNK        -0.5105 
     52 CA        -77.0847   21.5736  -75.4635 C.3       4 UNK         0.0263 
     53 CB        -77.6071   20.6254  -74.3724 C.3       4 UNK        -0.1981 
     54 N         -78.2075   22.0242  -76.2896 N.am      4 UNK        -0.4224 
     55 C         -78.0958   22.7445  -77.4157 C.2       3 UNK         0.4895 
     56 O         -77.0221   23.0641  -77.9247 O.2       3 UNK        -0.5091 
     57 CA        -79.4095   23.2368  -78.0496 C.3       3 UNK         0.0250 
     58 CB        -79.9481   22.1976  -79.0455 C.3       3 UNK        -0.1996 
     59 N         -80.4521   23.5648  -77.0684 N.am      3 UNK        -0.4254 
     60 C         -80.3303   24.4770  -76.0930 C.2       2 UNK         0.5004 
     61 O         -79.3101   25.1437  -75.9036 O.2       2 UNK        -0.5226 
     62 CA        -81.5175   24.5917  -75.1222 C.3       2 UNK         0.0269 
     63 CB        -81.4429   23.4720  -74.0699 C.3       2 UNK        -0.1926 
     64 N         -81.5740   25.8771  -74.4223 N.am      2 UNK        -0.4687 
     65 C         -81.7779   27.0724  -74.9959 C.2       1 UNK         0.5165 
     66 O         -81.9349   27.2346  -76.2072 O.2       1 UNK        -0.5079 
     67 H67       -84.6405   26.2840  -71.1611 H         1 UNK         0.0900 
     68 H68       -84.9919   27.9842  -70.8397 H         1 UNK         0.0900 
     69 H69       -83.3987   27.3261  -70.4639 H         1 UNK         0.0900 
     70 H70       -81.8568   27.9208  -71.9672 H         1 UNK         0.2959 
     71 H71       -82.5153   29.0156  -74.5408 H         1 UNK         0.1079 
     72 H72       -80.0073   29.1187  -74.8356 H         1 UNK         0.0837 
     73 H73       -79.7954   28.2839  -73.3267 H         1 UNK         0.0837 
     74 H74       -80.3843   31.0992  -70.6974 H         1 UNK         0.0685 
     75 H75       -80.9845   29.4798  -70.9150 H         1 UNK         0.0685 
     76 H76       -79.4475   27.6206  -70.8224 H         1 UNK         0.1434 
     77 H77       -75.2268   28.3242  -70.6066 H         1 UNK         0.1329 
     78 H78       -77.9130   31.6036  -71.2497 H         1 UNK         0.1335 
     79 H79       -74.3733   30.5444  -70.5393 H         1 UNK         0.0680 
     80 H80       -75.4770   31.8714  -70.2630 H         1 UNK         0.0680 
     81 H81       -73.1166   32.5456  -71.2518 H         1 UNK         0.1032 
     82 H82       -73.4808   33.5836  -72.5993 H         1 UNK         0.1032 
     83 H83       -72.3501   32.0951  -74.1802 H         1 UNK         0.0461 
     84 H84       -70.9849   33.9360  -74.3454 H         1 UNK         0.3453 
     85 H85       -69.6084   34.1742  -73.3013 H         1 UNK         0.3453 
     86 H86       -72.8269   30.0804  -72.3819 H         1 UNK         0.2984 
     87 H87       -70.7466   27.8818  -72.4070 H         1 UNK         0.0554 
     88 H88       -72.9870   26.7080  -72.6016 H         1 UNK         0.0847 
     89 H89       -73.6217   28.1073  -73.4541 H         1 UNK         0.0847 
     90 H90       -73.0882   28.2470  -71.7774 H         1 UNK         0.0847 
     91 H91       -70.3990   26.5246  -74.1137 H         1 UNK         0.3141 
     92 H92       -70.4557   26.6263  -77.2995 H         1 UNK         0.0743 
     93 H93       -70.8265   24.5313  -75.0740 H         1 UNK         0.0784 
     94 H94       -69.9544   24.2755  -76.5784 H         1 UNK         0.0784 
     95 H95       -69.3389   25.4236  -75.4137 H         1 UNK         0.0784 
     96 H96       -73.1390   25.7509  -76.6868 H         1 UNK         0.3213 
     97 H97       -73.6577   24.6625  -79.9756 H         1 UNK         0.0855 
     98 H98       -73.7495   22.6634  -77.6493 H         1 UNK         0.0814 
     99 H99       -72.8582   22.4251  -79.1476 H         1 UNK         0.0814 
    100 H100      -74.6103   22.5208  -79.1817 H         1 UNK         0.0814 
    101 H101      -75.4120   24.4773  -77.7501 H         1 UNK         0.3105 
    102 H102      -76.0573   27.8726  -77.2034 H         1 UNK         0.0547 
    103 H103      -77.4463   27.6599  -79.2357 H         1 UNK         0.0837 
    104 H104      -77.8724   26.0096  -78.8166 H         1 UNK         0.0837 
    105 H105      -78.4345   27.3493  -77.8162 H         1 UNK         0.0837 
    106 H106      -77.5633   25.7511  -76.2420 H         1 UNK         0.3020 
    107 H107      -75.4789   24.8552  -73.4627 H         1 UNK         0.1245 
    108 H108      -78.1382   26.3083  -73.9449 H         1 UNK         0.0781 
    109 H109      -76.7644   26.9739  -73.1213 H         1 UNK         0.0781 
    110 H110      -75.9975   26.0923  -70.5498 H         1 UNK         0.0836 
    111 H111      -77.4200   26.0082  -69.5389 H         1 UNK         0.0836 
    112 H112      -77.9336   23.9267  -74.8001 H         1 UNK         0.3022 
    113 H113      -76.4012   21.0160  -76.1075 H         1 UNK         0.0747 
    114 H114      -78.1056   19.7576  -74.8047 H         1 UNK         0.0793 
    115 H115      -76.7880   20.2522  -73.7559 H         1 UNK         0.0793 
    116 H116      -78.3137   21.1242  -73.7075 H         1 UNK         0.0793 
    117 H117      -79.1342   21.8060  -75.9551 H         1 UNK         0.3047 
    118 H118      -79.1848   24.1490  -78.6031 H         1 UNK         0.0822 
    119 H119      -80.8237   22.5721  -79.5762 H         1 UNK         0.0807 
    120 H120      -80.2271   21.2668  -78.5500 H         1 UNK         0.0807 
    121 H121      -79.1967   21.9534  -79.7981 H         1 UNK         0.0807 
    122 H122      -81.3180   23.0501  -77.1467 H         1 UNK         0.2946 
    123 H123      -82.4411   24.4852  -75.6957 H         1 UNK         0.1144 
    124 H124      -80.5356   23.5450  -73.4678 H         1 UNK         0.0793 
    125 H125      -81.4463   22.4863  -74.5369 H         1 UNK         0.0793 
    126 H126      -82.2970   23.5063  -73.3930 H         1 UNK         0.0793 
    127 H127      -81.4485   25.8499  -73.4218 H         1 UNK         0.2896 
@<TRIPOS>BOND
     1    1    2 1    
     2    1   67 1    
     3    1   68 1    
     4    1   69 1    
     5    2    3 2    
     6    2    4 am   BACKBONE|DICT|INTERRES
     7    4    5 1    
     8    4   70 1    
     9    5    6 1    
    10    5   65 1    
    11    5   71 1    
    12    6    7 1    
    13    6   72 1    
    14    6   73 1    
    15    7    8 1    
    16    8    9 1    
    17    8   74 1    
    18    8   75 1    
    19    9   10 ar   
    20    9   14 ar   
    21   10   11 ar   
    22   10   76 1    
    23   11   12 ar   
    24   11   48 1    
    25   12   13 ar   
    26   12   77 1    
    27   13   14 ar   
    28   13   15 1    
    29   14   78 1    
    30   15   16 1    
    31   15   79 1    
    32   15   80 1    
    33   16   17 1    
    34   17   18 1    
    35   17   81 1    
    36   17   82 1    
    37   18   19 1    
    38   18   22 1    
    39   18   83 1    
    40   19   20 am   BACKBONE|DICT|INTERRES
    41   19   21 2    
    42   20   84 1    
    43   20   85 1    
    44   22   23 am   BACKBONE|DICT|INTERRES
    45   22   86 1    
    46   23   24 2    
    47   23   25 1    
    48   25   26 1    
    49   25   27 1    
    50   25   87 1    
    51   26   88 1    
    52   26   89 1    
    53   26   90 1    
    54   27   28 am   BACKBONE|DICT|INTERRES
    55   27   91 1    
    56   28   29 2    
    57   28   30 1    
    58   30   31 1    
    59   30   32 1    
    60   30   92 1    
    61   31   93 1    
    62   31   94 1    
    63   31   95 1    
    64   32   33 am   BACKBONE|DICT|INTERRES
    65   32   96 1    
    66   33   34 2    
    67   33   35 1    
    68   35   36 1    
    69   35   37 1    
    70   35   97 1    
    71   36   98 1    
    72   36   99 1    
    73   36  100 1    
    74   37   38 am   BACKBONE|DICT|INTERRES
    75   37  101 1    
    76   38   39 2    
    77   38   40 1    
    78   40   41 1    
    79   40   42 1    
    80   40  102 1    
    81   41  103 1    
    82   41  104 1    
    83   41  105 1    
    84   42   43 am   BACKBONE|DICT|INTERRES
    85   42  106 1    
    86   43   44 2    
    87   43   45 1    
    88   45   46 1    
    89   45   49 1    
    90   45  107 1    
    91   46   47 1    
    92   46  108 1    
    93   46  109 1    
    94   47   48 1    
    95   48  110 1    
    96   48  111 1    
    97   49   50 am   BACKBONE|DICT|INTERRES
    98   49  112 1    
    99   50   51 2    
   100   50   52 1    
   101   52   53 1    
   102   52   54 1    
   103   52  113 1    
   104   53  114 1    
   105   53  115 1    
   106   53  116 1    
   107   54   55 am   BACKBONE|DICT|INTERRES
   108   54  117 1    
   109   55   56 2    
   110   55   57 1    
   111   57   58 1    
   112   57   59 1    
   113   57  118 1    
   114   58  119 1    
   115   58  120 1    
   116   58  121 1    
   117   59   60 am   BACKBONE|DICT|INTERRES
   118   59  122 1    
   119   60   61 2    
   120   60   62 1    
   121   62   63 1    
   122   62   64 1    
   123   62  123 1    
   124   63  124 1    
   125   63  125 1    
   126   63  126 1    
   127   64   65 am   BACKBONE|DICT|INTERRES
   128   64  127 1    
   129   65   66 2    
@<TRIPOS>SUBSTRUCTURE
     1 UNK         1 GROUP             0       ****    0 ROOT    
