@<TRIPOS>MOLECULE
3R135
127   129    1
SMALL
USER_CHARGES


@<TRIPOS>ATOM
      1 CA        -76.7092   28.6312  -74.7497 C.3       0 UNK        -0.1998 
      2 C         -78.1956   28.8575  -74.5148 C.2       0 UNK         0.4909 
      3 O         -78.8695   29.4383  -75.3654 O.2       0 UNK        -0.5240 
      4 N         -78.7042   28.3884  -73.3672 N.am      1 UNK        -0.4739 
      5 CA        -80.1027   28.4790  -72.9172 C.3       1 UNK         0.0864 
      6 C6        -80.5460   29.9155  -72.5279 C.3       11 UNK        -0.0881 
      7 S7        -79.4401   30.7858  -71.3564 S.3       11 UNK        -0.2682 
      8 C8        -79.3350   29.6647  -69.9166 C.3       11 UNK         0.0289 
      9 C9        -78.1561   28.7045  -70.0291 C.ar      11 UNK        -0.0687 
     10 C10       -78.3620   27.3252  -70.1431 C.ar      11 UNK        -0.0823 
     11 C11       -77.2812   26.4579  -70.3278 C.ar      11 UNK        -0.0830 
     12 C12       -75.9819   26.9723  -70.3364 C.ar      11 UNK        -0.1021 
     13 C13       -75.7591   28.3418  -70.1723 C.ar      11 UNK        -0.0753 
     14 C14       -76.8493   29.2031  -70.0234 C.ar      11 UNK        -0.0933 
     15 C15       -74.3375   28.8791  -70.1500 C.3       11 UNK         0.0166 
     16 S16       -73.7690   29.3300  -71.8162 S.3       11 UNK        -0.2615 
     17 C17       -74.1851   31.1060  -71.8883 C.3       11 UNK        -0.0865 
     18 CA        -74.5808   31.5896  -73.3079 C.3       10 UNK         0.0862 
     19 C         -74.9389   33.1056  -73.2739 C.2       10 UNK         0.5551 
     20 N         -74.1556   33.9890  -73.8808 N.am      10 UNK        -0.7319 
     21 O         -75.9446   33.4844  -72.6795 O.2       10 UNK        -0.5018 
     22 N         -73.5769   31.1958  -74.3137 N.am      10 UNK        -0.4509 
     23 C         -73.7286   31.2760  -75.6420 C.2       10 UNK         0.4899 
     24 O         -74.7353   31.7154  -76.1973 O.2       10 UNK        -0.4839 
     25 CA        -72.5523   30.7799  -76.5013 C.3       9 UNK         0.0222 
     26 CB        -71.5316   31.9094  -76.7174 C.3       9 UNK        -0.1966 
     27 N         -71.8724   29.6024  -75.9481 N.am      9 UNK        -0.4218 
     28 C         -72.4144   28.3783  -75.8879 C.2       9 UNK         0.5020 
     29 O         -73.5630   28.1201  -76.2553 O.2       9 UNK        -0.5274 
     30 CA        -71.5215   27.2626  -75.3219 C.3       8 UNK         0.0270 
     31 CB        -71.6459   27.1905  -73.7925 C.3       8 UNK        -0.1976 
     32 N         -71.9481   25.9842  -75.8838 N.am      8 UNK        -0.4313 
     33 C         -71.2767   25.2680  -76.7958 C.2       8 UNK         0.5041 
     34 O         -70.1304   25.5284  -77.1649 O.2       8 UNK        -0.5577 
     35 CA        -72.0095   24.0633  -77.4241 C.3       7 UNK         0.0284 
     36 CB        -71.6356   22.7631  -76.6944 C.3       7 UNK        -0.1958 
     37 N         -73.4658   24.2213  -77.4113 N.am      7 UNK        -0.4454 
     38 C         -74.1343   25.1557  -78.0996 C.2       7 UNK         0.5089 
     39 O         -73.6246   25.8190  -79.0040 O.2       7 UNK        -0.5125 
     40 CA        -75.6007   25.4302  -77.7061 C.3       6 UNK         0.0408 
     41 CB        -76.5402   25.2000  -78.9009 C.3       6 UNK        -0.1791 
     42 N         -76.1278   24.7003  -76.5433 N.am      6 UNK        -0.4762 
     43 C         -75.6825   24.7425  -75.2765 C.2       6 UNK         0.5007 
     44 O         -74.6297   25.2838  -74.9412 O.2       6 UNK        -0.5032 
     45 CA        -76.5670   24.0938  -74.1919 C.3       5 UNK         0.0783 
     46 C46       -77.2262   25.2126  -73.3488 C.3       11 UNK        -0.0857 
     47 S47       -78.3964   24.6094  -72.0832 S.3       11 UNK        -0.2512 
     48 C48       -77.5153   24.9661  -70.5273 C.3       11 UNK         0.0225 
     49 N         -77.5670   23.1983  -74.7810 N.am      5 UNK        -0.4615 
     50 C         -77.4022   21.8860  -74.9857 C.2       4 UNK         0.5053 
     51 O         -76.3671   21.2789  -74.7111 O.2       4 UNK        -0.5105 
     52 CA        -78.5909   21.1123  -75.5893 C.3       4 UNK         0.0263 
     53 CB        -79.3919   20.4181  -74.4758 C.3       4 UNK        -0.1981 
     54 N         -79.4971   21.9565  -76.3738 N.am      4 UNK        -0.4224 
     55 C         -79.2039   22.4748  -77.5748 C.2       3 UNK         0.4895 
     56 O         -78.1651   22.2298  -78.1870 O.2       3 UNK        -0.5091 
     57 CA        -80.2187   23.4644  -78.1809 C.3       3 UNK         0.0250 
     58 CB        -81.1957   22.7260  -79.1098 C.3       3 UNK        -0.1996 
     59 N         -80.9804   24.2463  -77.1957 N.am      3 UNK        -0.4254 
     60 C         -80.4447   25.0398  -76.2573 C.2       2 UNK         0.5004 
     61 O         -79.2296   25.1729  -76.0913 O.2       2 UNK        -0.5226 
     62 CA        -81.4218   25.7619  -75.3205 C.3       2 UNK         0.0269 
     63 CB        -82.2272   24.7608  -74.4692 C.3       2 UNK        -0.1926 
     64 N         -80.6592   26.6389  -74.4371 N.am      2 UNK        -0.4687 
     65 C         -81.0996   27.7593  -73.8555 C.2       1 UNK         0.5165 
     66 O         -82.2396   28.2012  -74.0126 O.2       1 UNK        -0.5079 
     67 H67       -76.5559   27.7748  -75.4055 H         1 UNK         0.0900 
     68 H68       -76.1709   28.4506  -73.8187 H         1 UNK         0.0900 
     69 H69       -76.2644   29.5010  -75.2314 H         1 UNK         0.0900 
     70 H70       -78.0802   27.9565  -72.6990 H         1 UNK         0.2959 
     71 H71       -80.1634   27.8808  -72.0125 H         1 UNK         0.1079 
     72 H72       -80.6289   30.5329  -73.4240 H         1 UNK         0.0837 
     73 H73       -81.5432   29.8975  -72.0840 H         1 UNK         0.0837 
     74 H74       -79.2081   30.2672  -69.0162 H         1 UNK         0.0685 
     75 H75       -80.2773   29.1287  -69.7941 H         1 UNK         0.0685 
     76 H76       -79.3648   26.9212  -70.1197 H         1 UNK         0.1434 
     77 H77       -75.1392   26.3076  -70.4710 H         1 UNK         0.1329 
     78 H78       -76.6865   30.2660  -69.9134 H         1 UNK         0.1335 
     79 H79       -74.2583   29.7339  -69.4766 H         1 UNK         0.0680 
     80 H80       -73.6645   28.1194  -69.7493 H         1 UNK         0.0680 
     81 H81       -73.3245   31.6678  -71.5200 H         1 UNK         0.1032 
     82 H82       -74.9985   31.3095  -71.1903 H         1 UNK         0.1032 
     83 H83       -75.5052   31.0763  -73.5764 H         1 UNK         0.0461 
     84 H84       -74.3976   34.9669  -73.8526 H         1 UNK         0.3453 
     85 H85       -73.3312   33.6853  -74.3726 H         1 UNK         0.3453 
     86 H86       -72.7232   30.8018  -73.9485 H         1 UNK         0.2984 
     87 H87       -72.9559   30.5022  -77.4775 H         1 UNK         0.0554 
     88 H88       -70.7429   31.6056  -77.4059 H         1 UNK         0.0847 
     89 H89       -71.0616   32.2182  -75.7829 H         1 UNK         0.0847 
     90 H90       -72.0104   32.7904  -77.1476 H         1 UNK         0.0847 
     91 H91       -70.9246   29.7325  -75.6237 H         1 UNK         0.3141 
     92 H92       -70.4825   27.4718  -75.5848 H         1 UNK         0.0743 
     93 H93       -71.3310   28.1251  -73.3271 H         1 UNK         0.0784 
     94 H94       -72.6747   26.9984  -73.4832 H         1 UNK         0.0784 
     95 H95       -71.0213   26.3973  -73.3817 H         1 UNK         0.0784 
     96 H96       -72.9139   25.7343  -75.6785 H         1 UNK         0.3213 
     97 H97       -71.6848   23.9831  -78.4638 H         1 UNK         0.0855 
     98 H98       -70.5562   22.6054  -76.7098 H         1 UNK         0.0814 
     99 H99       -72.0953   21.8952  -77.1675 H         1 UNK         0.0814 
    100 H100      -71.9471   22.7823  -75.6492 H         1 UNK         0.0814 
    101 H101      -73.9716   23.7341  -76.6857 H         1 UNK         0.3105 
    102 H102      -75.6467   26.4904  -77.4502 H         1 UNK         0.0547 
    103 H103      -76.2304   25.7880  -79.7658 H         1 UNK         0.0837 
    104 H104      -76.5513   24.1534  -79.2065 H         1 UNK         0.0837 
    105 H105      -77.5620   25.4956  -78.6632 H         1 UNK         0.0837 
    106 H106      -77.0088   24.2277  -76.6941 H         1 UNK         0.3020 
    107 H107      -75.9076   23.5191  -73.5375 H         1 UNK         0.1245 
    108 H108      -77.7829   25.8840  -74.0004 H         1 UNK         0.0781 
    109 H109      -76.4575   25.8261  -72.8769 H         1 UNK         0.0781 
    110 H110      -76.5732   24.4157  -70.5178 H         1 UNK         0.0836 
    111 H111      -78.1025   24.5815  -69.6922 H         1 UNK         0.0836 
    112 H112      -78.4266   23.6463  -75.0772 H         1 UNK         0.3022 
    113 H113      -78.1819   20.3432  -76.2482 H         1 UNK         0.0747 
    114 H114      -80.1977   19.8090  -74.8860 H         1 UNK         0.0793 
    115 H115      -78.7526   19.7551  -73.8910 H         1 UNK         0.0793 
    116 H116      -79.8315   21.1388  -73.7847 H         1 UNK         0.0793 
    117 H117      -80.3794   22.2008  -75.9484 H         1 UNK         0.3047 
    118 H118      -79.6501   24.1746  -78.7844 H         1 UNK         0.0822 
    119 H119      -81.8484   23.4230  -79.6358 H         1 UNK         0.0807 
    120 H120      -81.8246   22.0245  -78.5602 H         1 UNK         0.0807 
    121 H121      -80.6577   22.1556  -79.8686 H         1 UNK         0.0807 
    122 H122      -81.9867   24.1855  -77.2598 H         1 UNK         0.2946 
    123 H123      -82.0980   26.3611  -75.9346 H         1 UNK         0.1144 
    124 H124      -82.9110   25.2760  -73.7944 H         1 UNK         0.0793 
    125 H125      -81.5730   24.1331  -73.8621 H         1 UNK         0.0793 
    126 H126      -82.8332   24.1009  -75.0908 H         1 UNK         0.0793 
    127 H127      -79.6869   26.3792  -74.3342 H         1 UNK         0.2896 
@<TRIPOS>BOND
     1    1    2 1    
     2    1   67 1    
     3    1   68 1    
     4    1   69 1    
     5    2    3 2    
     6    2    4 am   BACKBONE|DICT|INTERRES
     7    4    5 1    
     8    4   70 1    
     9    5    6 1    
    10    5   65 1    
    11    5   71 1    
    12    6    7 1    
    13    6   72 1    
    14    6   73 1    
    15    7    8 1    
    16    8    9 1    
    17    8   74 1    
    18    8   75 1    
    19    9   10 ar   
    20    9   14 ar   
    21   10   11 ar   
    22   10   76 1    
    23   11   12 ar   
    24   11   48 1    
    25   12   13 ar   
    26   12   77 1    
    27   13   14 ar   
    28   13   15 1    
    29   14   78 1    
    30   15   16 1    
    31   15   79 1    
    32   15   80 1    
    33   16   17 1    
    34   17   18 1    
    35   17   81 1    
    36   17   82 1    
    37   18   19 1    
    38   18   22 1    
    39   18   83 1    
    40   19   20 am   BACKBONE|DICT|INTERRES
    41   19   21 2    
    42   20   84 1    
    43   20   85 1    
    44   22   23 am   BACKBONE|DICT|INTERRES
    45   22   86 1    
    46   23   24 2    
    47   23   25 1    
    48   25   26 1    
    49   25   27 1    
    50   25   87 1    
    51   26   88 1    
    52   26   89 1    
    53   26   90 1    
    54   27   28 am   BACKBONE|DICT|INTERRES
    55   27   91 1    
    56   28   29 2    
    57   28   30 1    
    58   30   31 1    
    59   30   32 1    
    60   30   92 1    
    61   31   93 1    
    62   31   94 1    
    63   31   95 1    
    64   32   33 am   BACKBONE|DICT|INTERRES
    65   32   96 1    
    66   33   34 2    
    67   33   35 1    
    68   35   36 1    
    69   35   37 1    
    70   35   97 1    
    71   36   98 1    
    72   36   99 1    
    73   36  100 1    
    74   37   38 am   BACKBONE|DICT|INTERRES
    75   37  101 1    
    76   38   39 2    
    77   38   40 1    
    78   40   41 1    
    79   40   42 1    
    80   40  102 1    
    81   41  103 1    
    82   41  104 1    
    83   41  105 1    
    84   42   43 am   BACKBONE|DICT|INTERRES
    85   42  106 1    
    86   43   44 2    
    87   43   45 1    
    88   45   46 1    
    89   45   49 1    
    90   45  107 1    
    91   46   47 1    
    92   46  108 1    
    93   46  109 1    
    94   47   48 1    
    95   48  110 1    
    96   48  111 1    
    97   49   50 am   BACKBONE|DICT|INTERRES
    98   49  112 1    
    99   50   51 2    
   100   50   52 1    
   101   52   53 1    
   102   52   54 1    
   103   52  113 1    
   104   53  114 1    
   105   53  115 1    
   106   53  116 1    
   107   54   55 am   BACKBONE|DICT|INTERRES
   108   54  117 1    
   109   55   56 2    
   110   55   57 1    
   111   57   58 1    
   112   57   59 1    
   113   57  118 1    
   114   58  119 1    
   115   58  120 1    
   116   58  121 1    
   117   59   60 am   BACKBONE|DICT|INTERRES
   118   59  122 1    
   119   60   61 2    
   120   60   62 1    
   121   62   63 1    
   122   62   64 1    
   123   62  123 1    
   124   63  124 1    
   125   63  125 1    
   126   63  126 1    
   127   64   65 am   BACKBONE|DICT|INTERRES
   128   64  127 1    
   129   65   66 2    
@<TRIPOS>SUBSTRUCTURE
     1 UNK         1 GROUP             0       ****    0 ROOT    
