@<TRIPOS>MOLECULE
3R135
127   129    1
SMALL
USER_CHARGES


@<TRIPOS>ATOM
      1 CA        -83.7784   26.9064  -74.7570 C.3       0 UNK        -0.1998 
      2 C         -82.2724   26.7032  -74.7198 C.2       0 UNK         0.4909 
      3 O         -81.8147   25.5699  -74.5725 O.2       0 UNK        -0.5240 
      4 N         -81.4974   27.7860  -74.8783 N.am      1 UNK        -0.4739 
      5 CA        -80.0251   27.8234  -74.8133 C.3       1 UNK         0.0864 
      6 C6        -79.4827   27.6354  -73.3743 C.3       11 UNK        -0.0881 
      7 S7        -80.1059   28.9365  -72.2536 S.3       11 UNK        -0.2682 
      8 C8        -79.4438   28.3886  -70.6477 C.3       11 UNK         0.0289 
      9 C9        -77.9301   28.2346  -70.6760 C.ar      11 UNK        -0.0687 
     10 C10       -77.3460   26.9936  -70.4134 C.ar      11 UNK        -0.0823 
     11 C11       -75.9589   26.8274  -70.4914 C.ar      11 UNK        -0.0830 
     12 C12       -75.1540   27.9232  -70.8221 C.ar      11 UNK        -0.1021 
     13 C13       -75.7279   29.1748  -71.0660 C.ar      11 UNK        -0.0753 
     14 C14       -77.1141   29.3256  -70.9857 C.ar      11 UNK        -0.0933 
     15 C15       -74.8605   30.3727  -71.4106 C.3       11 UNK         0.0166 
     16 S16       -74.7127   30.5815  -73.2119 S.3       11 UNK        -0.2615 
     17 C17       -74.0507   32.2860  -73.3051 C.3       11 UNK        -0.0865 
     18 CA        -72.5069   32.3646  -73.4320 C.3       10 UNK         0.0862 
     19 C         -71.7948   32.0650  -72.0785 C.2       10 UNK         0.5551 
     20 N         -71.0550   30.9708  -71.9367 N.am      10 UNK        -0.7319 
     21 O         -71.9157   32.8490  -71.1406 O.2       10 UNK        -0.5018 
     22 N         -72.0294   31.5752  -74.5731 N.am      10 UNK        -0.4509 
     23 C         -70.8160   31.6704  -75.1278 C.2       10 UNK         0.4899 
     24 O         -70.0089   32.5595  -74.8516 O.2       10 UNK        -0.4839 
     25 CA        -70.4404   30.5864  -76.1598 C.3       9 UNK         0.0222 
     26 CB        -68.9260   30.2900  -76.1647 C.3       9 UNK        -0.1966 
     27 N         -71.2020   29.3340  -76.0297 N.am      9 UNK        -0.4218 
     28 C         -71.2899   28.5202  -74.9684 C.2       9 UNK         0.5020 
     29 O         -70.7707   28.7681  -73.8777 O.2       9 UNK        -0.5274 
     30 CA        -72.0984   27.2178  -75.1620 C.3       8 UNK         0.0270 
     31 CB        -72.0613   26.3201  -73.9097 C.3       8 UNK        -0.1976 
     32 N         -73.5017   27.4115  -75.5503 N.am      8 UNK        -0.4313 
     33 C         -73.9623   27.9154  -76.7037 C.2       8 UNK         0.5041 
     34 O         -73.2405   28.3844  -77.5872 O.2       8 UNK        -0.5577 
     35 CA        -75.4871   27.8247  -76.9116 C.3       7 UNK         0.0284 
     36 CB        -75.9806   28.6340  -78.1289 C.3       7 UNK        -0.1958 
     37 N         -75.9402   26.4306  -77.0058 N.am      7 UNK        -0.4454 
     38 C         -75.5099   25.4798  -77.8548 C.2       7 UNK         0.5089 
     39 O         -74.6892   25.6704  -78.7530 O.2       7 UNK        -0.5125 
     40 CA        -76.1170   24.0721  -77.6707 C.3       6 UNK         0.0408 
     41 CB        -75.2336   22.9534  -78.2641 C.3       6 UNK        -0.1791 
     42 N         -76.4808   23.7762  -76.2779 N.am      6 UNK        -0.4762 
     43 C         -75.6427   23.7210  -75.2307 C.2       6 UNK         0.5007 
     44 O         -74.4238   23.8593  -75.3330 O.2       6 UNK        -0.5032 
     45 CA        -76.2481   23.4908  -73.8343 C.3       5 UNK         0.0783 
     46 C46       -75.7469   24.5596  -72.8290 C.3       11 UNK        -0.0857 
     47 S47       -76.1307   24.1063  -71.1072 S.3       11 UNK        -0.2512 
     48 C48       -75.3266   25.4703  -70.2035 C.3       11 UNK         0.0225 
     49 N         -77.7178   23.4291  -73.8730 N.am      5 UNK        -0.4615 
     50 C         -78.4329   22.3929  -73.4157 C.2       4 UNK         0.5053 
     51 O         -77.9408   21.3340  -73.0241 O.2       4 UNK        -0.5105 
     52 CA        -79.9574   22.5685  -73.3631 C.3       4 UNK         0.0263 
     53 CB        -80.3582   23.4978  -72.2058 C.3       4 UNK        -0.1981 
     54 N         -80.5299   23.0614  -74.6163 N.am      4 UNK        -0.4224 
     55 C         -80.6593   22.3206  -75.7267 C.2       3 UNK         0.4895 
     56 O         -80.2327   21.1712  -75.8401 O.2       3 UNK        -0.5091 
     57 CA        -81.4039   22.9604  -76.9059 C.3       3 UNK         0.0250 
     58 CB        -82.9192   23.0003  -76.6419 C.3       3 UNK        -0.1996 
     59 N         -80.9111   24.3126  -77.1657 N.am      3 UNK        -0.4254 
     60 C         -79.9917   24.6123  -78.0930 C.2       2 UNK         0.5004 
     61 O         -79.5093   23.7824  -78.8632 O.2       2 UNK        -0.5226 
     62 CA        -79.5272   26.0770  -78.2053 C.3       2 UNK         0.0269 
     63 CB        -80.0660   26.7149  -79.4961 C.3       2 UNK        -0.1926 
     64 N         -79.9122   26.9162  -77.0701 N.am      2 UNK        -0.4687 
     65 C         -79.3760   26.8702  -75.8425 C.2       1 UNK         0.5165 
     66 O         -78.4605   26.1053  -75.5212 O.2       1 UNK        -0.5079 
     67 H67       -84.0458   27.9526  -74.9039 H         1 UNK         0.0900 
     68 H68       -84.2223   26.5703  -73.8205 H         1 UNK         0.0900 
     69 H69       -84.2146   26.3254  -75.5690 H         1 UNK         0.0900 
     70 H70       -81.9402   28.6863  -75.0004 H         1 UNK         0.2959 
     71 H71       -79.7313   28.8236  -75.1365 H         1 UNK         0.1079 
     72 H72       -79.7618   26.6597  -72.9788 H         1 UNK         0.0837 
     73 H73       -78.3915   27.6740  -73.3697 H         1 UNK         0.0837 
     74 H74       -79.7155   29.1176  -69.8831 H         1 UNK         0.0685 
     75 H75       -79.9281   27.4513  -70.3694 H         1 UNK         0.0685 
     76 H76       -77.9723   26.1479  -70.1642 H         1 UNK         0.1434 
     77 H77       -74.0805   27.8072  -70.8855 H         1 UNK         0.1329 
     78 H78       -77.5625   30.2888  -71.1880 H         1 UNK         0.1335 
     79 H79       -75.2911   31.2715  -70.9667 H         1 UNK         0.0680 
     80 H80       -73.8678   30.2570  -70.9738 H         1 UNK         0.0680 
     81 H81       -74.4028   32.8761  -72.4568 H         1 UNK         0.1032 
     82 H82       -74.5003   32.7580  -74.1799 H         1 UNK         0.1032 
     83 H83       -72.2661   33.4058  -73.6560 H         1 UNK         0.0461 
     84 H84       -70.5966   30.7968  -71.0572 H         1 UNK         0.3453 
     85 H85       -70.9658   30.2977  -72.6926 H         1 UNK         0.3453 
     86 H86       -72.6198   30.8023  -74.8422 H         1 UNK         0.2984 
     87 H87       -70.7016   30.9971  -77.1359 H         1 UNK         0.0554 
     88 H88       -68.6702   29.5403  -76.9133 H         1 UNK         0.0847 
     89 H89       -68.5839   29.9264  -75.1950 H         1 UNK         0.0847 
     90 H90       -68.3491   31.1858  -76.3980 H         1 UNK         0.0847 
     91 H91       -71.7643   29.0651  -76.8392 H         1 UNK         0.3141 
     92 H92       -71.6101   26.6703  -75.9708 H         1 UNK         0.0743 
     93 H93       -72.5751   26.7828  -73.0659 H         1 UNK         0.0784 
     94 H94       -72.5264   25.3532  -74.1000 H         1 UNK         0.0784 
     95 H95       -71.0348   26.1217  -73.5982 H         1 UNK         0.0784 
     96 H96       -74.1822   27.0559  -74.8956 H         1 UNK         0.3213 
     97 H97       -75.9549   28.2513  -76.0223 H         1 UNK         0.0855 
     98 H98       -75.6997   29.6838  -78.0368 H         1 UNK         0.0814 
     99 H99       -77.0663   28.5941  -78.2172 H         1 UNK         0.0814 
    100 H100      -75.5548   28.2653  -79.0627 H         1 UNK         0.0814 
    101 H101      -76.6510   26.1578  -76.3327 H         1 UNK         0.3105 
    102 H102      -77.0450   24.0723  -78.2369 H         1 UNK         0.0547 
    103 H103      -75.0997   23.0904  -79.3377 H         1 UNK         0.0837 
    104 H104      -74.2402   22.9367  -77.8153 H         1 UNK         0.0837 
    105 H105      -75.6851   21.9722  -78.1195 H         1 UNK         0.0837 
    106 H106      -77.4665   23.6513  -76.0947 H         1 UNK         0.3020 
    107 H107      -75.8400   22.5274  -73.5200 H         1 UNK         0.1245 
    108 H108      -76.1876   25.5333  -73.0521 H         1 UNK         0.0781 
    109 H109      -74.6646   24.6871  -72.8915 H         1 UNK         0.0781 
    110 H110      -74.2628   25.4754  -70.4467 H         1 UNK         0.0836 
    111 H111      -75.3971   25.2722  -69.1333 H         1 UNK         0.0836 
    112 H112      -78.1955   24.2679  -74.1796 H         1 UNK         0.3022 
    113 H113      -80.3942   21.5876  -73.1620 H         1 UNK         0.0747 
    114 H114      -81.4417   23.5868  -72.1243 H         1 UNK         0.0793 
    115 H115      -79.9899   23.1144  -71.2533 H         1 UNK         0.0793 
    116 H116      -79.9495   24.4993  -72.3305 H         1 UNK         0.0793 
    117 H117      -80.9431   23.9934  -74.5959 H         1 UNK         0.3047 
    118 H118      -81.2425   22.3285  -77.7822 H         1 UNK         0.0822 
    119 H119      -83.4572   23.4141  -77.4949 H         1 UNK         0.0807 
    120 H120      -83.1703   23.5999  -75.7666 H         1 UNK         0.0807 
    121 H121      -83.3095   21.9964  -76.4698 H         1 UNK         0.0807 
    122 H122      -81.2286   25.0391  -76.5358 H         1 UNK         0.2946 
    123 H123      -78.4390   26.0671  -78.2666 H         1 UNK         0.1144 
    124 H124      -79.7654   26.1390  -80.3727 H         1 UNK         0.0793 
    125 H125      -79.6811   27.7261  -79.6299 H         1 UNK         0.0793 
    126 H126      -81.1555   26.7653  -79.4977 H         1 UNK         0.0793 
    127 H127      -80.6759   27.5589  -77.2266 H         1 UNK         0.2896 
@<TRIPOS>BOND
     1    1    2 1    
     2    1   67 1    
     3    1   68 1    
     4    1   69 1    
     5    2    3 2    
     6    2    4 am   BACKBONE|DICT|INTERRES
     7    4    5 1    
     8    4   70 1    
     9    5    6 1    
    10    5   65 1    
    11    5   71 1    
    12    6    7 1    
    13    6   72 1    
    14    6   73 1    
    15    7    8 1    
    16    8    9 1    
    17    8   74 1    
    18    8   75 1    
    19    9   10 ar   
    20    9   14 ar   
    21   10   11 ar   
    22   10   76 1    
    23   11   12 ar   
    24   11   48 1    
    25   12   13 ar   
    26   12   77 1    
    27   13   14 ar   
    28   13   15 1    
    29   14   78 1    
    30   15   16 1    
    31   15   79 1    
    32   15   80 1    
    33   16   17 1    
    34   17   18 1    
    35   17   81 1    
    36   17   82 1    
    37   18   19 1    
    38   18   22 1    
    39   18   83 1    
    40   19   20 am   BACKBONE|DICT|INTERRES
    41   19   21 2    
    42   20   84 1    
    43   20   85 1    
    44   22   23 am   BACKBONE|DICT|INTERRES
    45   22   86 1    
    46   23   24 2    
    47   23   25 1    
    48   25   26 1    
    49   25   27 1    
    50   25   87 1    
    51   26   88 1    
    52   26   89 1    
    53   26   90 1    
    54   27   28 am   BACKBONE|DICT|INTERRES
    55   27   91 1    
    56   28   29 2    
    57   28   30 1    
    58   30   31 1    
    59   30   32 1    
    60   30   92 1    
    61   31   93 1    
    62   31   94 1    
    63   31   95 1    
    64   32   33 am   BACKBONE|DICT|INTERRES
    65   32   96 1    
    66   33   34 2    
    67   33   35 1    
    68   35   36 1    
    69   35   37 1    
    70   35   97 1    
    71   36   98 1    
    72   36   99 1    
    73   36  100 1    
    74   37   38 am   BACKBONE|DICT|INTERRES
    75   37  101 1    
    76   38   39 2    
    77   38   40 1    
    78   40   41 1    
    79   40   42 1    
    80   40  102 1    
    81   41  103 1    
    82   41  104 1    
    83   41  105 1    
    84   42   43 am   BACKBONE|DICT|INTERRES
    85   42  106 1    
    86   43   44 2    
    87   43   45 1    
    88   45   46 1    
    89   45   49 1    
    90   45  107 1    
    91   46   47 1    
    92   46  108 1    
    93   46  109 1    
    94   47   48 1    
    95   48  110 1    
    96   48  111 1    
    97   49   50 am   BACKBONE|DICT|INTERRES
    98   49  112 1    
    99   50   51 2    
   100   50   52 1    
   101   52   53 1    
   102   52   54 1    
   103   52  113 1    
   104   53  114 1    
   105   53  115 1    
   106   53  116 1    
   107   54   55 am   BACKBONE|DICT|INTERRES
   108   54  117 1    
   109   55   56 2    
   110   55   57 1    
   111   57   58 1    
   112   57   59 1    
   113   57  118 1    
   114   58  119 1    
   115   58  120 1    
   116   58  121 1    
   117   59   60 am   BACKBONE|DICT|INTERRES
   118   59  122 1    
   119   60   61 2    
   120   60   62 1    
   121   62   63 1    
   122   62   64 1    
   123   62  123 1    
   124   63  124 1    
   125   63  125 1    
   126   63  126 1    
   127   64   65 am   BACKBONE|DICT|INTERRES
   128   64  127 1    
   129   65   66 2    
@<TRIPOS>SUBSTRUCTURE
     1 UNK         1 GROUP             0       ****    0 ROOT    
