@<TRIPOS>MOLECULE
3R135
127   129    1
SMALL
USER_CHARGES


@<TRIPOS>ATOM
      1 CA        -82.4060   28.3132  -78.0980 C.3       0 UNK        -0.1998 
      2 C         -82.0392   27.4233  -76.9203 C.2       0 UNK         0.4909 
      3 O         -81.7137   26.2546  -77.1186 O.2       0 UNK        -0.5240 
      4 N         -82.0792   27.9753  -75.7015 N.am      1 UNK        -0.4739 
      5 CA        -81.7720   27.3054  -74.4298 C.3       1 UNK         0.0864 
      6 C6        -81.7732   28.3249  -73.2512 C.3       11 UNK        -0.0881 
      7 S7        -80.9856   29.9448  -73.6038 S.3       11 UNK        -0.2682 
      8 C8        -79.2689   29.5220  -74.0438 C.3       11 UNK         0.0289 
      9 C9        -78.3871   29.3577  -72.8184 C.ar      11 UNK        -0.0687 
     10 C10       -78.2858   28.1165  -72.1881 C.ar      11 UNK        -0.0823 
     11 C11       -77.4873   27.9566  -71.0516 C.ar      11 UNK        -0.0830 
     12 C12       -76.7697   29.0504  -70.5610 C.ar      11 UNK        -0.1021 
     13 C13       -76.8303   30.2883  -71.2071 C.ar      11 UNK        -0.0753 
     14 C14       -77.6523   30.4406  -72.3273 C.ar      11 UNK        -0.0933 
     15 C15       -76.0047   31.4605  -70.6990 C.3       11 UNK         0.0166 
     16 S16       -74.4531   31.6448  -71.6349 S.3       11 UNK        -0.2615 
     17 C17       -73.4947   30.2087  -71.0379 C.3       11 UNK        -0.0865 
     18 CA        -72.2401   29.9218  -71.9005 C.3       10 UNK         0.0862 
     19 C         -71.3402   28.8431  -71.2281 C.2       10 UNK         0.5551 
     20 N         -71.0895   27.6927  -71.8398 N.am      10 UNK        -0.7319 
     21 O         -70.8516   29.0618  -70.1221 O.2       10 UNK        -0.5018 
     22 N         -72.6018   29.6375  -73.2979 N.am      10 UNK        -0.4509 
     23 C         -71.7820   29.7877  -74.3426 C.2       10 UNK         0.4899 
     24 O         -70.6217   30.1974  -74.2668 O.2       10 UNK        -0.4839 
     25 CA        -72.3720   29.4152  -75.7123 C.3       9 UNK         0.0222 
     26 CB        -72.1155   30.5251  -76.7462 C.3       9 UNK        -0.1966 
     27 N         -71.8890   28.1413  -76.2524 N.am      9 UNK        -0.4218 
     28 C         -71.7508   26.9687  -75.6158 C.2       9 UNK         0.5020 
     29 O         -71.9058   26.7955  -74.4061 O.2       9 UNK        -0.5274 
     30 CA        -71.4714   25.7626  -76.5250 C.3       8 UNK         0.0270 
     31 CB        -71.0553   24.5043  -75.7401 C.3       8 UNK        -0.1976 
     32 N         -72.6853   25.4800  -77.2900 N.am      8 UNK        -0.4313 
     33 C         -73.0249   26.1020  -78.4265 C.2       8 UNK         0.5041 
     34 O         -72.2790   26.8788  -79.0259 O.2       8 UNK        -0.5577 
     35 CA        -74.4527   25.8728  -78.9399 C.3       7 UNK         0.0284 
     36 CB        -74.6442   24.4275  -79.4288 C.3       7 UNK        -0.1958 
     37 N         -75.4569   26.1924  -77.9226 N.am      7 UNK        -0.4454 
     38 C         -75.7283   27.4247  -77.4618 C.2       7 UNK         0.5089 
     39 O         -75.1763   28.4487  -77.8637 O.2       7 UNK        -0.5125 
     40 CA        -76.8051   27.5276  -76.3667 C.3       6 UNK         0.0408 
     41 CB        -78.2049   27.2999  -76.9671 C.3       6 UNK        -0.1791 
     42 N         -76.5443   26.5637  -75.2962 N.am      6 UNK        -0.4762 
     43 C         -75.5724   26.6995  -74.3791 C.2       6 UNK         0.5007 
     44 O         -74.9570   27.7509  -74.1959 O.2       6 UNK        -0.5032 
     45 CA        -75.1710   25.4488  -73.5662 C.3       5 UNK         0.0783 
     46 C46       -75.3556   25.6171  -72.0337 C.3       11 UNK        -0.0857 
     47 S47       -77.0366   25.2222  -71.4392 S.3       11 UNK        -0.2512 
     48 C48       -77.4116   26.6166  -70.3316 C.3       11 UNK         0.0225 
     49 N         -75.7935   24.2184  -74.0699 N.am      5 UNK        -0.4615 
     50 C         -75.3509   23.4982  -75.1055 C.2       4 UNK         0.5053 
     51 O         -74.3598   23.7908  -75.7723 O.2       4 UNK        -0.5105 
     52 CA        -76.1889   22.2674  -75.4881 C.3       4 UNK         0.0263 
     53 CB        -76.0803   21.1689  -74.4175 C.3       4 UNK        -0.1981 
     54 N         -77.5988   22.5912  -75.7278 N.am      4 UNK        -0.4224 
     55 C         -78.0295   23.4246  -76.6852 C.2       3 UNK         0.4895 
     56 O         -77.2789   24.0157  -77.4607 O.2       3 UNK        -0.5091 
     57 CA        -79.5452   23.6587  -76.8043 C.3       3 UNK         0.0250 
     58 CB        -80.1617   22.6529  -77.7894 C.3       3 UNK        -0.1996 
     59 N         -80.3076   23.6377  -75.5495 N.am      3 UNK        -0.4254 
     60 C         -80.0537   24.3715  -74.4575 C.2       2 UNK         0.5004 
     61 O         -79.0577   25.0817  -74.3181 O.2       2 UNK        -0.5226 
     62 CA        -81.1289   24.3266  -73.3577 C.3       2 UNK         0.0269 
     63 CB        -80.6615   24.8730  -71.9984 C.3       2 UNK        -0.1926 
     64 N         -82.4157   24.9247  -73.7441 N.am      2 UNK        -0.4687 
     65 C         -82.7785   26.1470  -74.1782 C.2       1 UNK         0.5165 
     66 O         -83.9712   26.3827  -74.3796 O.2       1 UNK        -0.5079 
     67 H67       -81.5713   28.3728  -78.7959 H         1 UNK         0.0900 
     68 H68       -82.6572   29.3256  -77.7822 H         1 UNK         0.0900 
     69 H69       -83.2641   27.8994  -78.6268 H         1 UNK         0.0900 
     70 H70       -82.3606   28.9408  -75.6072 H         1 UNK         0.2959 
     71 H71       -80.7677   26.9104  -74.5273 H         1 UNK         0.1079 
     72 H72       -81.3013   27.9018  -72.3659 H         1 UNK         0.0837 
     73 H73       -82.7995   28.5482  -72.9522 H         1 UNK         0.0837 
     74 H74       -78.8692   30.3129  -74.6801 H         1 UNK         0.0685 
     75 H75       -79.2446   28.6179  -74.6457 H         1 UNK         0.0685 
     76 H76       -78.8203   27.2718  -72.5938 H         1 UNK         0.1434 
     77 H77       -76.1494   28.9363  -69.6824 H         1 UNK         0.1329 
     78 H78       -77.7097   31.3997  -72.8235 H         1 UNK         0.1335 
     79 H79       -76.5829   32.3812  -70.7906 H         1 UNK         0.0680 
     80 H80       -75.7803   31.3458  -69.6372 H         1 UNK         0.0680 
     81 H81       -73.2173   30.4050  -70.0003 H         1 UNK         0.1032 
     82 H82       -74.1295   29.3230  -71.0244 H         1 UNK         0.1032 
     83 H83       -71.6408   30.8344  -71.9031 H         1 UNK         0.0461 
     84 H84       -70.5011   27.0131  -71.3866 H         1 UNK         0.3453 
     85 H85       -71.4710   27.4922  -72.7629 H         1 UNK         0.3453 
     86 H86       -73.5135   29.2217  -73.4543 H         1 UNK         0.2984 
     87 H87       -73.4536   29.3222  -75.6072 H         1 UNK         0.0554 
     88 H88       -71.0541   30.6264  -76.9762 H         1 UNK         0.0847 
     89 H89       -72.4633   31.4908  -76.3767 H         1 UNK         0.0847 
     90 H90       -72.6454   30.3275  -77.6786 H         1 UNK         0.0847 
     91 H91       -71.7831   28.1100  -77.2597 H         1 UNK         0.3141 
     92 H92       -70.6531   26.0218  -77.2005 H         1 UNK         0.0743 
     93 H93       -71.8206   24.1953  -75.0272 H         1 UNK         0.0784 
     94 H94       -70.8652   23.6654  -76.4094 H         1 UNK         0.0784 
     95 H95       -70.1400   24.6853  -75.1754 H         1 UNK         0.0784 
     96 H96       -73.3710   24.8810  -76.8294 H         1 UNK         0.3213 
     97 H97       -74.6116   26.5407  -79.7892 H         1 UNK         0.0855 
     98 H98       -74.5538   23.7065  -78.6153 H         1 UNK         0.0814 
     99 H99       -73.9002   24.1672  -80.1828 H         1 UNK         0.0814 
    100 H100      -75.6266   24.2921  -79.8818 H         1 UNK         0.0814 
    101 H101      -76.0055   25.4100  -77.5724 H         1 UNK         0.3105 
    102 H102      -76.7784   28.5307  -75.9355 H         1 UNK         0.0547 
    103 H103      -78.5483   28.1944  -77.4874 H         1 UNK         0.0837 
    104 H104      -78.2178   26.4889  -77.6945 H         1 UNK         0.0837 
    105 H105      -78.9451   27.0581  -76.2072 H         1 UNK         0.0837 
    106 H106      -77.0641   25.6957  -75.3171 H         1 UNK         0.3020 
    107 H107      -74.0945   25.3594  -73.7322 H         1 UNK         0.1245 
    108 H108      -75.0612   26.6173  -71.7097 H         1 UNK         0.0781 
    109 H109      -74.6734   24.9383  -71.5200 H         1 UNK         0.0781 
    110 H110      -78.3707   26.4281  -69.8476 H         1 UNK         0.0836 
    111 H111      -76.6651   26.6401  -69.5362 H         1 UNK         0.0836 
    112 H112      -76.6482   23.9463  -73.6034 H         1 UNK         0.3022 
    113 H113      -75.7793   21.8714  -76.4200 H         1 UNK         0.0747 
    114 H114      -76.5789   20.2539  -74.7378 H         1 UNK         0.0793 
    115 H115      -75.0369   20.9157  -74.2240 H         1 UNK         0.0793 
    116 H116      -76.5223   21.4769  -73.4691 H         1 UNK         0.0793 
    117 H117      -78.2832   22.1538  -75.1285 H         1 UNK         0.3047 
    118 H118      -79.6703   24.6552  -77.2283 H         1 UNK         0.0822 
    119 H119      -81.2022   22.8974  -78.0049 H         1 UNK         0.0807 
    120 H120      -80.1267   21.6338  -77.4022 H         1 UNK         0.0807 
    121 H121      -79.6279   22.6596  -78.7410 H         1 UNK         0.0807 
    122 H122      -81.1665   23.1069  -75.5699 H         1 UNK         0.2946 
    123 H123      -81.3349   23.2664  -73.1981 H         1 UNK         0.1144 
    124 H124      -81.4337   24.7576  -71.2379 H         1 UNK         0.0793 
    125 H125      -80.3940   25.9223  -72.0409 H         1 UNK         0.0793 
    126 H126      -79.7864   24.3267  -71.6475 H         1 UNK         0.0793 
    127 H127      -83.1838   24.2744  -73.6546 H         1 UNK         0.2896 
@<TRIPOS>BOND
     1    1    2 1    
     2    1   67 1    
     3    1   68 1    
     4    1   69 1    
     5    2    3 2    
     6    2    4 am   BACKBONE|DICT|INTERRES
     7    4    5 1    
     8    4   70 1    
     9    5    6 1    
    10    5   65 1    
    11    5   71 1    
    12    6    7 1    
    13    6   72 1    
    14    6   73 1    
    15    7    8 1    
    16    8    9 1    
    17    8   74 1    
    18    8   75 1    
    19    9   10 ar   
    20    9   14 ar   
    21   10   11 ar   
    22   10   76 1    
    23   11   12 ar   
    24   11   48 1    
    25   12   13 ar   
    26   12   77 1    
    27   13   14 ar   
    28   13   15 1    
    29   14   78 1    
    30   15   16 1    
    31   15   79 1    
    32   15   80 1    
    33   16   17 1    
    34   17   18 1    
    35   17   81 1    
    36   17   82 1    
    37   18   19 1    
    38   18   22 1    
    39   18   83 1    
    40   19   20 am   BACKBONE|DICT|INTERRES
    41   19   21 2    
    42   20   84 1    
    43   20   85 1    
    44   22   23 am   BACKBONE|DICT|INTERRES
    45   22   86 1    
    46   23   24 2    
    47   23   25 1    
    48   25   26 1    
    49   25   27 1    
    50   25   87 1    
    51   26   88 1    
    52   26   89 1    
    53   26   90 1    
    54   27   28 am   BACKBONE|DICT|INTERRES
    55   27   91 1    
    56   28   29 2    
    57   28   30 1    
    58   30   31 1    
    59   30   32 1    
    60   30   92 1    
    61   31   93 1    
    62   31   94 1    
    63   31   95 1    
    64   32   33 am   BACKBONE|DICT|INTERRES
    65   32   96 1    
    66   33   34 2    
    67   33   35 1    
    68   35   36 1    
    69   35   37 1    
    70   35   97 1    
    71   36   98 1    
    72   36   99 1    
    73   36  100 1    
    74   37   38 am   BACKBONE|DICT|INTERRES
    75   37  101 1    
    76   38   39 2    
    77   38   40 1    
    78   40   41 1    
    79   40   42 1    
    80   40  102 1    
    81   41  103 1    
    82   41  104 1    
    83   41  105 1    
    84   42   43 am   BACKBONE|DICT|INTERRES
    85   42  106 1    
    86   43   44 2    
    87   43   45 1    
    88   45   46 1    
    89   45   49 1    
    90   45  107 1    
    91   46   47 1    
    92   46  108 1    
    93   46  109 1    
    94   47   48 1    
    95   48  110 1    
    96   48  111 1    
    97   49   50 am   BACKBONE|DICT|INTERRES
    98   49  112 1    
    99   50   51 2    
   100   50   52 1    
   101   52   53 1    
   102   52   54 1    
   103   52  113 1    
   104   53  114 1    
   105   53  115 1    
   106   53  116 1    
   107   54   55 am   BACKBONE|DICT|INTERRES
   108   54  117 1    
   109   55   56 2    
   110   55   57 1    
   111   57   58 1    
   112   57   59 1    
   113   57  118 1    
   114   58  119 1    
   115   58  120 1    
   116   58  121 1    
   117   59   60 am   BACKBONE|DICT|INTERRES
   118   59  122 1    
   119   60   61 2    
   120   60   62 1    
   121   62   63 1    
   122   62   64 1    
   123   62  123 1    
   124   63  124 1    
   125   63  125 1    
   126   63  126 1    
   127   64   65 am   BACKBONE|DICT|INTERRES
   128   64  127 1    
   129   65   66 2    
@<TRIPOS>SUBSTRUCTURE
     1 UNK         1 GROUP             0       ****    0 ROOT    
