@<TRIPOS>MOLECULE
3R135
127   129    1
SMALL
USER_CHARGES


@<TRIPOS>ATOM
      1 CA        -84.5188   22.5471  -70.6289 C.3       0 UNK        -0.1998 
      2 C         -83.8218   23.6478  -71.4145 C.2       0 UNK         0.4909 
      3 O         -84.4565   24.6411  -71.7703 O.2       0 UNK        -0.5240 
      4 N         -82.5198   23.4804  -71.6846 N.am      1 UNK        -0.4739 
      5 CA        -81.6958   24.4223  -72.4532 C.3       1 UNK         0.0864 
      6 C6        -80.1879   24.1186  -72.2596 C.3       11 UNK        -0.0881 
      7 S7        -79.0983   25.4865  -72.7784 S.3       11 UNK        -0.2682 
      8 C8        -78.7562   26.2899  -71.1845 C.3       11 UNK         0.0289 
      9 C9        -77.8021   27.4641  -71.3451 C.ar      11 UNK        -0.0687 
     10 C10       -78.2957   28.7602  -71.5226 C.ar      11 UNK        -0.0823 
     11 C11       -77.4189   29.8442  -71.6399 C.ar      11 UNK        -0.0830 
     12 C12       -76.0398   29.6260  -71.5617 C.ar      11 UNK        -0.1021 
     13 C13       -75.5344   28.3322  -71.4035 C.ar      11 UNK        -0.0753 
     14 C14       -76.4206   27.2559  -71.2969 C.ar      11 UNK        -0.0933 
     15 C15       -74.0342   28.0912  -71.3363 C.3       11 UNK         0.0166 
     16 S16       -73.2969   28.0217  -72.9967 S.3       11 UNK        -0.2615 
     17 C17       -72.6569   29.7226  -73.1756 C.3       11 UNK        -0.0865 
     18 CA        -72.0958   29.9866  -74.5932 C.3       10 UNK         0.0862 
     19 C         -71.7242   31.4779  -74.7893 C.2       10 UNK         0.5551 
     20 N         -72.6206   32.2571  -75.3783 N.am      10 UNK        -0.7319 
     21 O         -70.6612   31.9340  -74.3732 O.2       10 UNK        -0.5018 
     22 N         -71.0127   29.0586  -74.9295 N.am      10 UNK        -0.4509 
     23 C         -70.4799   28.8751  -76.1420 C.2       10 UNK         0.4899 
     24 O         -70.7629   29.5523  -77.1299 O.2       10 UNK        -0.4839 
     25 CA        -69.5217   27.6805  -76.3056 C.3       9 UNK         0.0222 
     26 CB        -68.0761   28.0539  -75.9218 C.3       9 UNK        -0.1966 
     27 N         -69.9925   26.4632  -75.6225 N.am      9 UNK        -0.4218 
     28 C         -70.0624   26.2140  -74.3062 C.2       9 UNK         0.5020 
     29 O         -69.6525   26.9832  -73.4352 O.2       9 UNK        -0.5274 
     30 CA        -70.8270   24.9468  -73.9119 C.3       8 UNK         0.0270 
     31 CB        -70.7700   24.6477  -72.4014 C.3       8 UNK        -0.1976 
     32 N         -72.2175   25.1343  -74.3165 N.am      8 UNK        -0.4313 
     33 C         -72.9770   24.2278  -74.9371 C.2       8 UNK         0.5041 
     34 O         -72.6027   23.0865  -75.2107 O.2       8 UNK        -0.5577 
     35 CA        -74.3990   24.6691  -75.3239 C.3       7 UNK         0.0284 
     36 CB        -75.3568   24.4590  -74.1387 C.3       7 UNK        -0.1958 
     37 N         -74.5185   26.0575  -75.7838 N.am      7 UNK        -0.4454 
     38 C         -73.8760   26.6188  -76.8234 C.2       7 UNK         0.5089 
     39 O         -72.9773   26.0578  -77.4508 O.2       7 UNK        -0.5125 
     40 CA        -74.3234   28.0299  -77.2621 C.3       6 UNK         0.0408 
     41 CB        -74.7090   28.0562  -78.7511 C.3       6 UNK        -0.1791 
     42 N         -75.4610   28.4913  -76.4699 N.am      6 UNK        -0.4762 
     43 C         -75.7067   29.7161  -75.9964 C.2       6 UNK         0.5007 
     44 O         -75.0093   30.7025  -76.2420 O.2       6 UNK        -0.5032 
     45 CA        -76.9547   29.8413  -75.0897 C.3       5 UNK         0.0783 
     46 C46       -77.2075   31.2949  -74.6072 C.3       11 UNK        -0.0857 
     47 S47       -78.6745   31.4490  -73.5273 S.3       11 UNK        -0.2512 
     48 C48       -77.9614   31.2493  -71.8615 C.3       11 UNK         0.0225 
     49 N         -78.1513   29.2307  -75.6883 N.am      5 UNK        -0.4615 
     50 C         -78.3913   27.9159  -75.7671 C.2       4 UNK         0.5053 
     51 O         -77.5749   27.0687  -75.3951 O.2       4 UNK        -0.5105 
     52 CA        -79.7520   27.4932  -76.3540 C.3       4 UNK         0.0263 
     53 CB        -80.1051   28.2518  -77.6529 C.3       4 UNK        -0.1981 
     54 N         -79.8540   26.0415  -76.5448 N.am      4 UNK        -0.4224 
     55 C         -79.1450   25.2677  -77.3847 C.2       3 UNK         0.4895 
     56 O         -78.3508   25.7024  -78.2207 O.2       3 UNK        -0.5091 
     57 CA        -79.3316   23.7402  -77.2760 C.3       3 UNK         0.0250 
     58 CB        -78.0893   23.0960  -76.6374 C.3       3 UNK        -0.1996 
     59 N         -80.5122   23.3413  -76.5061 N.am      3 UNK        -0.4254 
     60 C         -81.7803   23.4364  -76.9295 C.2       2 UNK         0.5004 
     61 O         -82.0983   23.7831  -78.0673 O.2       2 UNK        -0.5226 
     62 CA        -82.8825   23.1156  -75.9008 C.3       2 UNK         0.0269 
     63 CB        -83.4024   21.6823  -76.0973 C.3       2 UNK        -0.1926 
     64 N         -82.4720   23.2908  -74.5002 N.am      2 UNK        -0.4687 
     65 C         -82.0882   24.4529  -73.9472 C.2       1 UNK         0.5165 
     66 O         -82.0303   25.5120  -74.5728 O.2       1 UNK        -0.5079 
     67 H67       -84.9314   22.9500  -69.7044 H         1 UNK         0.0900 
     68 H68       -83.8384   21.7358  -70.3709 H         1 UNK         0.0900 
     69 H69       -85.3376   22.1298  -71.2142 H         1 UNK         0.0900 
     70 H70       -82.0513   22.6477  -71.3556 H         1 UNK         0.2959 
     71 H71       -81.8934   25.4202  -72.0543 H         1 UNK         0.1079 
     72 H72       -79.9837   23.9012  -71.2099 H         1 UNK         0.0837 
     73 H73       -79.8975   23.2180  -72.8039 H         1 UNK         0.0837 
     74 H74       -79.6949   26.6242  -70.7400 H         1 UNK         0.0685 
     75 H75       -78.3291   25.5605  -70.4945 H         1 UNK         0.0685 
     76 H76       -79.3631   28.9262  -71.5778 H         1 UNK         0.1434 
     77 H77       -75.3593   30.4619  -71.6388 H         1 UNK         0.1329 
     78 H78       -76.0365   26.2531  -71.1701 H         1 UNK         0.1335 
     79 H79       -73.5527   28.8659  -70.7377 H         1 UNK         0.0680 
     80 H80       -73.8289   27.1476  -70.8283 H         1 UNK         0.0680 
     81 H81       -71.8876   29.8955  -72.4205 H         1 UNK         0.1032 
     82 H82       -73.4665   30.4206  -72.9596 H         1 UNK         0.1032 
     83 H83       -72.8936   29.7579  -75.2914 H         1 UNK         0.0461 
     84 H84       -72.4211   33.2358  -75.5100 H         1 UNK         0.3453 
     85 H85       -73.4883   31.8614  -75.7280 H         1 UNK         0.3453 
     86 H86       -70.6750   28.4676  -74.1765 H         1 UNK         0.2984 
     87 H87       -69.5178   27.4283  -77.3674 H         1 UNK         0.0554 
     88 H88       -67.9953   28.3810  -74.8850 H         1 UNK         0.0847 
     89 H89       -67.7121   28.8726  -76.5438 H         1 UNK         0.0847 
     90 H90       -67.3974   27.2129  -76.0630 H         1 UNK         0.0847 
     91 H91       -70.4329   25.7875  -76.2341 H         1 UNK         0.3141 
     92 H92       -70.3748   24.1116  -74.4511 H         1 UNK         0.0743 
     93 H93       -69.7390   24.5326  -72.0646 H         1 UNK         0.0784 
     94 H94       -71.2206   25.4491  -71.8138 H         1 UNK         0.0784 
     95 H95       -71.2957   23.7231  -72.1627 H         1 UNK         0.0784 
     96 H96       -72.6114   26.0511  -74.1385 H         1 UNK         0.3213 
     97 H97       -74.7267   24.0312  -76.1472 H         1 UNK         0.0855 
     98 H98       -75.3586   23.4172  -73.8159 H         1 UNK         0.0814 
     99 H99       -76.3821   24.7195  -74.4011 H         1 UNK         0.0814 
    100 H100      -75.0733   25.0679  -73.2792 H         1 UNK         0.0814 
    101 H101      -75.2241   26.6051  -75.3119 H         1 UNK         0.3105 
    102 H102      -73.4741   28.6968  -77.1203 H         1 UNK         0.0547 
    103 H103      -73.8749   27.7408  -79.3791 H         1 UNK         0.0837 
    104 H104      -74.9900   29.0602  -79.0691 H         1 UNK         0.0837 
    105 H105      -75.5478   27.3906  -78.9595 H         1 UNK         0.0837 
    106 H106      -76.1571   27.7836  -76.2391 H         1 UNK         0.3020 
    107 H107      -76.7109   29.2509  -74.2052 H         1 UNK         0.1245 
    108 H108      -77.3555   31.9557  -75.4633 H         1 UNK         0.0781 
    109 H109      -76.3356   31.6806  -74.0752 H         1 UNK         0.0781 
    110 H110      -78.7350   31.4547  -71.1202 H         1 UNK         0.0836 
    111 H111      -77.1852   32.0003  -71.7065 H         1 UNK         0.0836 
    112 H112      -78.8544   29.8764  -76.0157 H         1 UNK         0.3022 
    113 H113      -80.5015   27.7435  -75.6016 H         1 UNK         0.0747 
    114 H114      -81.0227   27.8661  -78.0975 H         1 UNK         0.0793 
    115 H115      -80.2674   29.3131  -77.4638 H         1 UNK         0.0793 
    116 H116      -79.3140   28.1713  -78.3992 H         1 UNK         0.0793 
    117 H117      -80.4767   25.5836  -75.8882 H         1 UNK         0.3047 
    118 H118      -79.4355   23.3541  -78.2923 H         1 UNK         0.0822 
    119 H119      -78.1528   22.0079  -76.6535 H         1 UNK         0.0807 
    120 H120      -77.9642   23.4108  -75.6011 H         1 UNK         0.0807 
    121 H121      -77.1814   23.3746  -77.1745 H         1 UNK         0.0807 
    122 H122      -80.3527   23.0327  -75.5585 H         1 UNK         0.2946 
    123 H123      -83.7050   23.8089  -76.0917 H         1 UNK         0.1144 
    124 H124      -83.7421   21.5271  -77.1225 H         1 UNK         0.0793 
    125 H125      -84.2495   21.4735  -75.4434 H         1 UNK         0.0793 
    126 H126      -82.6289   20.9405  -75.8947 H         1 UNK         0.0793 
    127 H127      -82.5071   22.4719  -73.9100 H         1 UNK         0.2896 
@<TRIPOS>BOND
     1    1    2 1    
     2    1   67 1    
     3    1   68 1    
     4    1   69 1    
     5    2    3 2    
     6    2    4 am   BACKBONE|DICT|INTERRES
     7    4    5 1    
     8    4   70 1    
     9    5    6 1    
    10    5   65 1    
    11    5   71 1    
    12    6    7 1    
    13    6   72 1    
    14    6   73 1    
    15    7    8 1    
    16    8    9 1    
    17    8   74 1    
    18    8   75 1    
    19    9   10 ar   
    20    9   14 ar   
    21   10   11 ar   
    22   10   76 1    
    23   11   12 ar   
    24   11   48 1    
    25   12   13 ar   
    26   12   77 1    
    27   13   14 ar   
    28   13   15 1    
    29   14   78 1    
    30   15   16 1    
    31   15   79 1    
    32   15   80 1    
    33   16   17 1    
    34   17   18 1    
    35   17   81 1    
    36   17   82 1    
    37   18   19 1    
    38   18   22 1    
    39   18   83 1    
    40   19   20 am   BACKBONE|DICT|INTERRES
    41   19   21 2    
    42   20   84 1    
    43   20   85 1    
    44   22   23 am   BACKBONE|DICT|INTERRES
    45   22   86 1    
    46   23   24 2    
    47   23   25 1    
    48   25   26 1    
    49   25   27 1    
    50   25   87 1    
    51   26   88 1    
    52   26   89 1    
    53   26   90 1    
    54   27   28 am   BACKBONE|DICT|INTERRES
    55   27   91 1    
    56   28   29 2    
    57   28   30 1    
    58   30   31 1    
    59   30   32 1    
    60   30   92 1    
    61   31   93 1    
    62   31   94 1    
    63   31   95 1    
    64   32   33 am   BACKBONE|DICT|INTERRES
    65   32   96 1    
    66   33   34 2    
    67   33   35 1    
    68   35   36 1    
    69   35   37 1    
    70   35   97 1    
    71   36   98 1    
    72   36   99 1    
    73   36  100 1    
    74   37   38 am   BACKBONE|DICT|INTERRES
    75   37  101 1    
    76   38   39 2    
    77   38   40 1    
    78   40   41 1    
    79   40   42 1    
    80   40  102 1    
    81   41  103 1    
    82   41  104 1    
    83   41  105 1    
    84   42   43 am   BACKBONE|DICT|INTERRES
    85   42  106 1    
    86   43   44 2    
    87   43   45 1    
    88   45   46 1    
    89   45   49 1    
    90   45  107 1    
    91   46   47 1    
    92   46  108 1    
    93   46  109 1    
    94   47   48 1    
    95   48  110 1    
    96   48  111 1    
    97   49   50 am   BACKBONE|DICT|INTERRES
    98   49  112 1    
    99   50   51 2    
   100   50   52 1    
   101   52   53 1    
   102   52   54 1    
   103   52  113 1    
   104   53  114 1    
   105   53  115 1    
   106   53  116 1    
   107   54   55 am   BACKBONE|DICT|INTERRES
   108   54  117 1    
   109   55   56 2    
   110   55   57 1    
   111   57   58 1    
   112   57   59 1    
   113   57  118 1    
   114   58  119 1    
   115   58  120 1    
   116   58  121 1    
   117   59   60 am   BACKBONE|DICT|INTERRES
   118   59  122 1    
   119   60   61 2    
   120   60   62 1    
   121   62   63 1    
   122   62   64 1    
   123   62  123 1    
   124   63  124 1    
   125   63  125 1    
   126   63  126 1    
   127   64   65 am   BACKBONE|DICT|INTERRES
   128   64  127 1    
   129   65   66 2    
@<TRIPOS>SUBSTRUCTURE
     1 UNK         1 GROUP             0       ****    0 ROOT    
