@<TRIPOS>MOLECULE
3R135
127   129    1
SMALL
USER_CHARGES


@<TRIPOS>ATOM
      1 CA        -80.0470   27.7667  -70.4343 C.3       0 UNK        -0.1998 
      2 C         -80.9495   27.7874  -71.6584 C.2       0 UNK         0.4909 
      3 O         -82.1639   27.6327  -71.5300 O.2       0 UNK        -0.5240 
      4 N         -80.3628   27.9840  -72.8452 N.am      1 UNK        -0.4739 
      5 CA        -81.0653   28.1086  -74.1306 C.3       1 UNK         0.0864 
      6 C6        -80.1393   28.7073  -75.2192 C.3       11 UNK        -0.0881 
      7 S7        -79.6532   30.4262  -74.8496 S.3       11 UNK        -0.2682 
      8 C8        -77.8377   30.3279  -74.8570 C.3       11 UNK         0.0289 
      9 C9        -77.2825   29.9251  -73.4992 C.ar      11 UNK        -0.0687 
     10 C10       -76.9069   28.6038  -73.2436 C.ar      11 UNK        -0.0823 
     11 C11       -76.3394   28.2449  -72.0152 C.ar      11 UNK        -0.0830 
     12 C12       -76.1487   29.2278  -71.0412 C.ar      11 UNK        -0.1021 
     13 C13       -76.4908   30.5569  -71.2975 C.ar      11 UNK        -0.0753 
     14 C14       -77.0757   30.8972  -72.5190 C.ar      11 UNK        -0.0933 
     15 C15       -76.1800   31.6382  -70.2786 C.3       11 UNK         0.0166 
     16 S16       -74.7170   32.6026  -70.7759 S.3       11 UNK        -0.2615 
     17 C17       -73.3515   31.4061  -70.5600 C.3       11 UNK        -0.0865 
     18 CA        -72.5092   31.2159  -71.8549 C.3       10 UNK         0.0862 
     19 C         -71.1078   30.5929  -71.5665 C.2       10 UNK         0.5551 
     20 N         -70.5651   29.7302  -72.4173 N.am      10 UNK        -0.7319 
     21 O         -70.4852   30.9064  -70.5547 O.2       10 UNK        -0.5018 
     22 N         -73.2575   30.5039  -72.9103 N.am      10 UNK        -0.4509 
     23 C         -73.1819   30.7856  -74.2169 C.2       10 UNK         0.4899 
     24 O         -72.5635   31.7492  -74.6736 O.2       10 UNK        -0.4839 
     25 CA        -73.8809   29.7948  -75.1739 C.3       9 UNK         0.0222 
     26 CB        -73.8926   30.2931  -76.6330 C.3       9 UNK        -0.1966 
     27 N         -73.3427   28.4254  -75.1223 N.am      9 UNK        -0.4218 
     28 C         -72.0551   28.0480  -75.2052 C.2       9 UNK         0.5020 
     29 O         -71.1038   28.8278  -75.2471 O.2       9 UNK        -0.5274 
     30 CA        -71.7722   26.5396  -75.2484 C.3       8 UNK         0.0270 
     31 CB        -71.9348   25.9133  -73.8526 C.3       8 UNK        -0.1976 
     32 N         -72.6505   25.8621  -76.2038 N.am      8 UNK        -0.4313 
     33 C         -72.3345   25.5827  -77.4766 C.2       8 UNK         0.5041 
     34 O         -71.2358   25.8273  -77.9771 O.2       8 UNK        -0.5577 
     35 CA        -73.4125   24.9047  -78.3473 C.3       7 UNK         0.0284 
     36 CB        -73.2231   23.3791  -78.3443 C.3       7 UNK        -0.1958 
     37 N         -74.7786   25.2159  -77.9240 N.am      7 UNK        -0.4454 
     38 C         -75.3710   26.4084  -78.0726 C.2       7 UNK         0.5089 
     39 O         -74.8766   27.3413  -78.7047 O.2       7 UNK        -0.5125 
     40 CA        -76.7278   26.6130  -77.3693 C.3       6 UNK         0.0408 
     41 CB        -77.8837   26.4966  -78.3745 C.3       6 UNK        -0.1791 
     42 N         -76.9839   25.7040  -76.2460 N.am      6 UNK        -0.4762 
     43 C         -76.2230   25.5688  -75.1514 C.2       6 UNK         0.5007 
     44 O         -75.1739   26.1888  -74.9809 O.2       6 UNK        -0.5032 
     45 CA        -76.7103   24.5719  -74.0835 C.3       5 UNK         0.0783 
     46 C46       -77.7837   25.2124  -73.1554 C.3       11 UNK        -0.0857 
     47 S47       -77.1978   25.6301  -71.4794 S.3       11 UNK        -0.2512 
     48 C48       -75.8513   26.8262  -71.7482 C.3       11 UNK         0.0225 
     49 N         -77.2044   23.3493  -74.7205 N.am      5 UNK        -0.4615 
     50 C         -76.4360   22.3983  -75.2669 C.2       4 UNK         0.5053 
     51 O         -75.2060   22.4294  -75.2612 O.2       4 UNK        -0.5105 
     52 CA        -77.1605   21.2156  -75.9354 C.3       4 UNK         0.0263 
     53 CB        -77.3015   20.0480  -74.9458 C.3       4 UNK        -0.1981 
     54 N         -78.4858   21.5763  -76.4490 N.am      4 UNK        -0.4224 
     55 C         -78.6922   22.3014  -77.5576 C.2       3 UNK         0.4895 
     56 O         -77.7910   22.6834  -78.3045 O.2       3 UNK        -0.5091 
     57 CA        -80.1485   22.7041  -77.8609 C.3       3 UNK         0.0250 
     58 CB        -80.8655   21.5899  -78.6402 C.3       3 UNK        -0.1996 
     59 N         -80.9409   23.0654  -76.6749 N.am      3 UNK        -0.4254 
     60 C         -80.6179   24.0425  -75.8164 C.2       2 UNK         0.5004 
     61 O         -79.5703   24.6877  -75.8914 O.2       2 UNK        -0.5226 
     62 CA        -81.5911   24.3208  -74.6572 C.3       2 UNK         0.0269 
     63 CB        -81.4612   23.2492  -73.5616 C.3       2 UNK        -0.1926 
     64 N         -81.3174   25.6409  -74.0780 N.am      2 UNK        -0.4687 
     65 C         -81.6943   26.7942  -74.6482 C.2       1 UNK         0.5165 
     66 O         -82.4920   26.8475  -75.5866 O.2       1 UNK        -0.5079 
     67 H67       -80.4436   28.4255  -69.6623 H         1 UNK         0.0900 
     68 H68       -79.9885   26.7577  -70.0271 H         1 UNK         0.0900 
     69 H69       -79.0357   28.0982  -70.6702 H         1 UNK         0.0900 
     70 H70       -79.3678   28.1560  -72.8758 H         1 UNK         0.2959 
     71 H71       -81.9000   28.7975  -73.9810 H         1 UNK         0.1079 
     72 H72       -79.2570   28.0795  -75.3580 H         1 UNK         0.0837 
     73 H73       -80.6426   28.7297  -76.1882 H         1 UNK         0.0837 
     74 H74       -77.4410   31.3071  -75.1298 H         1 UNK         0.0685 
     75 H75       -77.4993   29.6448  -75.6374 H         1 UNK         0.0685 
     76 H76       -77.0293   27.8723  -74.0230 H         1 UNK         0.1434 
     77 H77       -75.6946   28.9668  -70.0949 H         1 UNK         0.1329 
     78 H78       -77.3340   31.9280  -72.7206 H         1 UNK         0.1335 
     79 H79       -77.0350   32.3101  -70.1901 H         1 UNK         0.0680 
     80 H80       -76.0197   31.2118  -69.2870 H         1 UNK         0.0680 
     81 H81       -73.7250   30.4472  -70.2011 H         1 UNK         0.1032 
     82 H82       -72.7355   31.8005  -69.7499 H         1 UNK         0.1032 
     83 H83       -72.2779   32.2199  -72.2154 H         1 UNK         0.0461 
     84 H84       -69.6563   29.3492  -72.2085 H         1 UNK         0.3453 
     85 H85       -71.0023   29.5230  -73.3067 H         1 UNK         0.3453 
     86 H86       -73.7853   29.6961  -72.6146 H         1 UNK         0.2984 
     87 H87       -74.9164   29.7307  -74.8490 H         1 UNK         0.0554 
     88 H88       -74.3350   31.2874  -76.7050 H         1 UNK         0.0847 
     89 H89       -74.4786   29.6331  -77.2719 H         1 UNK         0.0847 
     90 H90       -72.8854   30.3516  -77.0473 H         1 UNK         0.0847 
     91 H91       -74.0376   27.6857  -75.0524 H         1 UNK         0.3141 
     92 H92       -70.7310   26.4046  -75.5498 H         1 UNK         0.0743 
     93 H93       -71.2772   26.3985  -73.1298 H         1 UNK         0.0784 
     94 H94       -72.9535   26.0033  -73.4764 H         1 UNK         0.0784 
     95 H95       -71.6771   24.8542  -73.8643 H         1 UNK         0.0784 
     96 H96       -73.5995   25.6865  -75.8873 H         1 UNK         0.3213 
     97 H97       -73.2827   25.2639  -79.3707 H         1 UNK         0.0855 
     98 H98       -73.3461   22.9586  -77.3452 H         1 UNK         0.0814 
     99 H99       -72.2243   23.1097  -78.6905 H         1 UNK         0.0814 
    100 H100      -73.9378   22.8883  -79.0054 H         1 UNK         0.0814 
    101 H101      -75.2757   24.5024  -77.4097 H         1 UNK         0.3105 
    102 H102      -76.7274   27.6280  -76.9676 H         1 UNK         0.0547 
    103 H103      -78.8407   26.7326  -77.9085 H         1 UNK         0.0837 
    104 H104      -77.9535   25.4904  -78.7897 H         1 UNK         0.0837 
    105 H105      -77.7499   27.1869  -79.2084 H         1 UNK         0.0837 
    106 H106      -77.8694   25.1989  -76.2689 H         1 UNK         0.3020 
    107 H107      -75.8404   24.2907  -73.4850 H         1 UNK         0.1245 
    108 H108      -78.5941   24.5039  -72.9899 H         1 UNK         0.0781 
    109 H109      -78.2761   26.0751  -73.6040 H         1 UNK         0.0781 
    110 H110      -75.1858   26.4970  -72.5403 H         1 UNK         0.0836 
    111 H111      -75.2324   26.8155  -70.8497 H         1 UNK         0.0836 
    112 H112      -78.2040   23.2919  -74.8515 H         1 UNK         0.3022 
    113 H113      -76.5429   20.8811  -76.7721 H         1 UNK         0.0747 
    114 H114      -77.7511   19.1764  -75.4220 H         1 UNK         0.0793 
    115 H115      -76.3263   19.7398  -74.5655 H         1 UNK         0.0793 
    116 H116      -77.9163   20.3167  -74.0857 H         1 UNK         0.0793 
    117 H117      -79.2861   21.2897  -75.9041 H         1 UNK         0.3047 
    118 H118      -80.1064   23.5895  -78.4993 H         1 UNK         0.0822 
    119 H119      -81.8563   21.9073  -78.9661 H         1 UNK         0.0807 
    120 H120      -80.9819   20.6860  -78.0410 H         1 UNK         0.0807 
    121 H121      -80.3053   21.3172  -79.5359 H         1 UNK         0.0807 
    122 H122      -81.8091   22.5658  -76.5427 H         1 UNK         0.2946 
    123 H123      -82.6112   24.3052  -75.0482 H         1 UNK         0.1144 
    124 H124      -80.4454   23.1718  -73.1758 H         1 UNK         0.0793 
    125 H125      -81.7380   22.2649  -73.9413 H         1 UNK         0.0793 
    126 H126      -82.1213   23.4634  -72.7207 H         1 UNK         0.0793 
    127 H127      -80.6575   25.6833  -73.3168 H         1 UNK         0.2896 
@<TRIPOS>BOND
     1    1    2 1    
     2    1   67 1    
     3    1   68 1    
     4    1   69 1    
     5    2    3 2    
     6    2    4 am   BACKBONE|DICT|INTERRES
     7    4    5 1    
     8    4   70 1    
     9    5    6 1    
    10    5   65 1    
    11    5   71 1    
    12    6    7 1    
    13    6   72 1    
    14    6   73 1    
    15    7    8 1    
    16    8    9 1    
    17    8   74 1    
    18    8   75 1    
    19    9   10 ar   
    20    9   14 ar   
    21   10   11 ar   
    22   10   76 1    
    23   11   12 ar   
    24   11   48 1    
    25   12   13 ar   
    26   12   77 1    
    27   13   14 ar   
    28   13   15 1    
    29   14   78 1    
    30   15   16 1    
    31   15   79 1    
    32   15   80 1    
    33   16   17 1    
    34   17   18 1    
    35   17   81 1    
    36   17   82 1    
    37   18   19 1    
    38   18   22 1    
    39   18   83 1    
    40   19   20 am   BACKBONE|DICT|INTERRES
    41   19   21 2    
    42   20   84 1    
    43   20   85 1    
    44   22   23 am   BACKBONE|DICT|INTERRES
    45   22   86 1    
    46   23   24 2    
    47   23   25 1    
    48   25   26 1    
    49   25   27 1    
    50   25   87 1    
    51   26   88 1    
    52   26   89 1    
    53   26   90 1    
    54   27   28 am   BACKBONE|DICT|INTERRES
    55   27   91 1    
    56   28   29 2    
    57   28   30 1    
    58   30   31 1    
    59   30   32 1    
    60   30   92 1    
    61   31   93 1    
    62   31   94 1    
    63   31   95 1    
    64   32   33 am   BACKBONE|DICT|INTERRES
    65   32   96 1    
    66   33   34 2    
    67   33   35 1    
    68   35   36 1    
    69   35   37 1    
    70   35   97 1    
    71   36   98 1    
    72   36   99 1    
    73   36  100 1    
    74   37   38 am   BACKBONE|DICT|INTERRES
    75   37  101 1    
    76   38   39 2    
    77   38   40 1    
    78   40   41 1    
    79   40   42 1    
    80   40  102 1    
    81   41  103 1    
    82   41  104 1    
    83   41  105 1    
    84   42   43 am   BACKBONE|DICT|INTERRES
    85   42  106 1    
    86   43   44 2    
    87   43   45 1    
    88   45   46 1    
    89   45   49 1    
    90   45  107 1    
    91   46   47 1    
    92   46  108 1    
    93   46  109 1    
    94   47   48 1    
    95   48  110 1    
    96   48  111 1    
    97   49   50 am   BACKBONE|DICT|INTERRES
    98   49  112 1    
    99   50   51 2    
   100   50   52 1    
   101   52   53 1    
   102   52   54 1    
   103   52  113 1    
   104   53  114 1    
   105   53  115 1    
   106   53  116 1    
   107   54   55 am   BACKBONE|DICT|INTERRES
   108   54  117 1    
   109   55   56 2    
   110   55   57 1    
   111   57   58 1    
   112   57   59 1    
   113   57  118 1    
   114   58  119 1    
   115   58  120 1    
   116   58  121 1    
   117   59   60 am   BACKBONE|DICT|INTERRES
   118   59  122 1    
   119   60   61 2    
   120   60   62 1    
   121   62   63 1    
   122   62   64 1    
   123   62  123 1    
   124   63  124 1    
   125   63  125 1    
   126   63  126 1    
   127   64   65 am   BACKBONE|DICT|INTERRES
   128   64  127 1    
   129   65   66 2    
@<TRIPOS>SUBSTRUCTURE
     1 UNK         1 GROUP             0       ****    0 ROOT    
