@<TRIPOS>MOLECULE
3R135
127   129    1
SMALL
USER_CHARGES


@<TRIPOS>ATOM
      1 CA        -82.2842   26.5865  -72.7853 C.3       0 UNK        -0.1998 
      2 C         -81.8353   26.6584  -74.2368 C.2       0 UNK         0.4909 
      3 O         -82.5345   26.1661  -75.1234 O.2       0 UNK        -0.5240 
      4 N         -80.6768   27.2814  -74.4873 N.am      1 UNK        -0.4739 
      5 CA        -80.1103   27.4757  -75.8242 C.3       1 UNK         0.0864 
      6 C6        -79.0122   28.5722  -75.8337 C.3       11 UNK        -0.0881 
      7 S7        -77.5456   28.1800  -74.8201 S.3       11 UNK        -0.2682 
      8 C8        -77.6787   29.3617  -73.4395 C.3       11 UNK         0.0289 
      9 C9        -76.7177   28.9491  -72.3377 C.ar      11 UNK        -0.0687 
     10 C10       -76.9933   27.8022  -71.5937 C.ar      11 UNK        -0.0823 
     11 C11       -76.0400   27.2744  -70.7217 C.ar      11 UNK        -0.0830 
     12 C12       -74.8487   27.9716  -70.5017 C.ar      11 UNK        -0.1021 
     13 C13       -74.5865   29.1585  -71.1949 C.ar      11 UNK        -0.0753 
     14 C14       -75.5194   29.6361  -72.1233 C.ar      11 UNK        -0.0933 
     15 C15       -73.2538   29.8678  -71.0179 C.3       11 UNK         0.0166 
     16 S16       -73.4461   31.5261  -70.2943 S.3       11 UNK        -0.2615 
     17 C17       -71.7149   32.1114  -70.3248 C.3       11 UNK        -0.0865 
     18 CA        -71.4558   33.2229  -71.3866 C.3       10 UNK         0.0862 
     19 C         -70.0297   33.8445  -71.2630 C.2       10 UNK         0.5551 
     20 N         -69.3981   34.2694  -72.3506 N.am      10 UNK        -0.7319 
     21 O         -69.4979   33.9752  -70.1628 O.2       10 UNK        -0.5018 
     22 N         -71.8418   32.8286  -72.7563 N.am      10 UNK        -0.4509 
     23 C         -71.3178   31.8218  -73.4659 C.2       10 UNK         0.4899 
     24 O         -70.4026   31.0937  -73.0749 O.2       10 UNK        -0.4839 
     25 CA        -71.9188   31.5901  -74.8558 C.3       9 UNK         0.0222 
     26 CB        -71.0120   32.1919  -75.9423 C.3       9 UNK        -0.1966 
     27 N         -72.0489   30.1500  -75.0763 N.am      9 UNK        -0.4218 
     28 C         -73.2063   29.4979  -75.2330 C.2       9 UNK         0.5020 
     29 O         -74.3086   30.0508  -75.2574 O.2       9 UNK        -0.5274 
     30 CA        -73.1076   27.9645  -75.3544 C.3       8 UNK         0.0270 
     31 CB        -73.0576   27.3071  -73.9652 C.3       8 UNK        -0.1976 
     32 N         -74.2322   27.3942  -76.0963 N.am      8 UNK        -0.4313 
     33 C         -74.4724   27.5849  -77.3993 C.2       8 UNK         0.5041 
     34 O         -73.7065   28.1846  -78.1579 O.2       8 UNK        -0.5577 
     35 CA        -75.7922   26.9941  -77.9319 C.3       7 UNK         0.0284 
     36 CB        -75.9488   27.1326  -79.4618 C.3       7 UNK        -0.1958 
     37 N         -76.0078   25.6064  -77.5003 N.am      7 UNK        -0.4454 
     38 C         -75.2586   24.5378  -77.8140 C.2       7 UNK         0.5089 
     39 O         -74.2442   24.5877  -78.5113 O.2       7 UNK        -0.5125 
     40 CA        -75.7520   23.1742  -77.2838 C.3       6 UNK         0.0408 
     41 CB        -74.6293   22.1159  -77.2350 C.3       6 UNK        -0.1791 
     42 N         -76.4518   23.2408  -75.9931 N.am      6 UNK        -0.4762 
     43 C         -75.9547   23.6780  -74.8240 C.2       6 UNK         0.5007 
     44 O         -74.8307   24.1663  -74.7070 O.2       6 UNK        -0.5032 
     45 CA        -76.8571   23.5432  -73.5801 C.3       5 UNK         0.0783 
     46 C46       -76.7947   24.7847  -72.6492 C.3       11 UNK        -0.0857 
     47 S47       -75.6846   24.5768  -71.2126 S.3       11 UNK        -0.2512 
     48 C48       -76.2673   25.9052  -70.0991 C.3       11 UNK         0.0225 
     49 N         -78.2470   23.2398  -73.9454 N.am      5 UNK        -0.4615 
     50 C         -78.9534   22.2363  -73.4109 C.2       4 UNK         0.5053 
     51 O         -78.4627   21.3572  -72.7020 O.2       4 UNK        -0.5105 
     52 CA        -80.4659   22.2161  -73.6585 C.3       4 UNK         0.0263 
     53 CB        -81.1664   23.1274  -72.6389 C.3       4 UNK        -0.1981 
     54 N         -80.8444   22.6279  -75.0147 N.am      4 UNK        -0.4224 
     55 C         -81.5666   21.8622  -75.8474 C.2       3 UNK         0.4895 
     56 O         -81.8911   20.6993  -75.6018 O.2       3 UNK        -0.5091 
     57 CA        -82.0535   22.4863  -77.1674 C.3       3 UNK         0.0250 
     58 CB        -83.5217   22.9247  -77.0368 C.3       3 UNK        -0.1996 
     59 N         -81.2597   23.6274  -77.6196 N.am      3 UNK        -0.4254 
     60 C         -80.0335   23.5393  -78.1501 C.2       2 UNK         0.5004 
     61 O         -79.4221   22.4818  -78.3001 O.2       2 UNK        -0.5226 
     62 CA        -79.3678   24.8594  -78.5746 C.3       2 UNK         0.0269 
     63 CB        -79.6595   25.1449  -80.0567 C.3       2 UNK        -0.1926 
     64 N         -79.7553   26.0289  -77.7735 N.am      2 UNK        -0.4687 
     65 C         -79.6323   26.1426  -76.4429 C.2       1 UNK         0.5165 
     66 O         -79.1689   25.2503  -75.7234 O.2       1 UNK        -0.5079 
     67 H67       -82.9643   27.4086  -72.5644 H         1 UNK         0.0900 
     68 H68       -82.8120   25.6528  -72.5948 H         1 UNK         0.0900 
     69 H69       -81.4392   26.6452  -72.0994 H         1 UNK         0.0900 
     70 H70       -80.1160   27.6288  -73.7240 H         1 UNK         0.2959 
     71 H71       -80.9263   27.8403  -76.4528 H         1 UNK         0.1079 
     72 H72       -79.4376   29.5187  -75.4963 H         1 UNK         0.0837 
     73 H73       -78.6773   28.7597  -76.8553 H         1 UNK         0.0837 
     74 H74       -78.6983   29.3764  -73.0523 H         1 UNK         0.0685 
     75 H75       -77.4565   30.3679  -73.7983 H         1 UNK         0.0685 
     76 H76       -77.9135   27.2653  -71.7745 H         1 UNK         0.1434 
     77 H77       -74.1065   27.5637  -69.8291 H         1 UNK         0.1329 
     78 H78       -75.2908   30.5173  -72.7074 H         1 UNK         0.1335 
     79 H79       -72.5840   29.2813  -70.3870 H         1 UNK         0.0680 
     80 H80       -72.7725   29.9415  -71.9915 H         1 UNK         0.0680 
     81 H81       -71.4938   32.4887  -69.3247 H         1 UNK         0.1032 
     82 H82       -71.0359   31.2705  -70.4753 H         1 UNK         0.1032 
     83 H83       -72.1235   34.0491  -71.1395 H         1 UNK         0.0461 
     84 H84       -68.4818   34.6798  -72.2622 H         1 UNK         0.3453 
     85 H85       -69.8272   34.1786  -73.2571 H         1 UNK         0.3453 
     86 H86       -72.5800   33.3802  -73.1700 H         1 UNK         0.2984 
     87 H87       -72.8932   32.0806  -74.9074 H         1 UNK         0.0554 
     88 H88       -70.9074   33.2698  -75.8123 H         1 UNK         0.0847 
     89 H89       -71.4249   32.0253  -76.9374 H         1 UNK         0.0847 
     90 H90       -70.0099   31.7612  -75.9199 H         1 UNK         0.0847 
     91 H91       -71.1933   29.6185  -74.9863 H         1 UNK         0.3141 
     92 H92       -72.1898   27.7189  -75.8927 H         1 UNK         0.0743 
     93 H93       -72.2538   27.7214  -73.3555 H         1 UNK         0.0784 
     94 H94       -72.8855   26.2331  -74.0421 H         1 UNK         0.0784 
     95 H95       -73.9914   27.4515  -73.4207 H         1 UNK         0.0784 
     96 H96       -74.9228   26.9004  -75.5497 H         1 UNK         0.3213 
     97 H97       -76.5889   27.5844  -77.4815 H         1 UNK         0.0855 
     98 H98       -75.1542   26.6172  -80.0019 H         1 UNK         0.0814 
     99 H99       -75.9149   28.1806  -79.7619 H         1 UNK         0.0814 
    100 H100      -76.9017   26.7303  -79.8020 H         1 UNK         0.0814 
    101 H101      -76.7893   25.4527  -76.8773 H         1 UNK         0.3105 
    102 H102      -76.4923   22.8269  -78.0060 H         1 UNK         0.0547 
    103 H103      -75.0036   21.1550  -76.8826 H         1 UNK         0.0837 
    104 H104      -73.8147   22.4212  -76.5774 H         1 UNK         0.0837 
    105 H105      -74.2021   21.9502  -78.2247 H         1 UNK         0.0837 
    106 H106      -77.3899   22.8637  -75.9840 H         1 UNK         0.3020 
    107 H107      -76.4353   22.6906  -73.0433 H         1 UNK         0.1245 
    108 H108      -77.7868   24.9983  -72.2487 H         1 UNK         0.0781 
    109 H109      -76.5030   25.6802  -73.2011 H         1 UNK         0.0781 
    110 H110      -75.7364   25.8322  -69.1488 H         1 UNK         0.0836 
    111 H111      -77.3243   25.7588  -69.8712 H         1 UNK         0.0836 
    112 H112      -78.7022   23.9375  -74.5308 H         1 UNK         0.3022 
    113 H113      -80.7979   21.1942  -73.4634 H         1 UNK         0.0747 
    114 H114      -82.2474   23.1261  -72.7799 H         1 UNK         0.0793 
    115 H115      -80.9715   22.7936  -71.6187 H         1 UNK         0.0793 
    116 H116      -80.8134   24.1553  -72.7159 H         1 UNK         0.0793 
    117 H117      -80.5952   23.5646  -75.3061 H         1 UNK         0.3047 
    118 H118      -81.9976   21.7091  -77.9329 H         1 UNK         0.0822 
    119 H119      -83.9134   23.2906  -77.9861 H         1 UNK         0.0807 
    120 H120      -83.6414   23.7163  -76.2955 H         1 UNK         0.0807 
    121 H121      -84.1536   22.0907  -76.7279 H         1 UNK         0.0807 
    122 H122      -81.6765   24.5423  -77.5184 H         1 UNK         0.2946 
    123 H123      -78.2944   24.7167  -78.4663 H         1 UNK         0.1144 
    124 H124      -79.1328   26.0325  -80.4064 H         1 UNK         0.0793 
    125 H125      -80.7247   25.2960  -80.2364 H         1 UNK         0.0793 
    126 H126      -79.3386   24.3127  -80.6851 H         1 UNK         0.0793 
    127 H127      -80.1474   26.8043  -78.2891 H         1 UNK         0.2896 
@<TRIPOS>BOND
     1    1    2 1    
     2    1   67 1    
     3    1   68 1    
     4    1   69 1    
     5    2    3 2    
     6    2    4 am   BACKBONE|DICT|INTERRES
     7    4    5 1    
     8    4   70 1    
     9    5    6 1    
    10    5   65 1    
    11    5   71 1    
    12    6    7 1    
    13    6   72 1    
    14    6   73 1    
    15    7    8 1    
    16    8    9 1    
    17    8   74 1    
    18    8   75 1    
    19    9   10 ar   
    20    9   14 ar   
    21   10   11 ar   
    22   10   76 1    
    23   11   12 ar   
    24   11   48 1    
    25   12   13 ar   
    26   12   77 1    
    27   13   14 ar   
    28   13   15 1    
    29   14   78 1    
    30   15   16 1    
    31   15   79 1    
    32   15   80 1    
    33   16   17 1    
    34   17   18 1    
    35   17   81 1    
    36   17   82 1    
    37   18   19 1    
    38   18   22 1    
    39   18   83 1    
    40   19   20 am   BACKBONE|DICT|INTERRES
    41   19   21 2    
    42   20   84 1    
    43   20   85 1    
    44   22   23 am   BACKBONE|DICT|INTERRES
    45   22   86 1    
    46   23   24 2    
    47   23   25 1    
    48   25   26 1    
    49   25   27 1    
    50   25   87 1    
    51   26   88 1    
    52   26   89 1    
    53   26   90 1    
    54   27   28 am   BACKBONE|DICT|INTERRES
    55   27   91 1    
    56   28   29 2    
    57   28   30 1    
    58   30   31 1    
    59   30   32 1    
    60   30   92 1    
    61   31   93 1    
    62   31   94 1    
    63   31   95 1    
    64   32   33 am   BACKBONE|DICT|INTERRES
    65   32   96 1    
    66   33   34 2    
    67   33   35 1    
    68   35   36 1    
    69   35   37 1    
    70   35   97 1    
    71   36   98 1    
    72   36   99 1    
    73   36  100 1    
    74   37   38 am   BACKBONE|DICT|INTERRES
    75   37  101 1    
    76   38   39 2    
    77   38   40 1    
    78   40   41 1    
    79   40   42 1    
    80   40  102 1    
    81   41  103 1    
    82   41  104 1    
    83   41  105 1    
    84   42   43 am   BACKBONE|DICT|INTERRES
    85   42  106 1    
    86   43   44 2    
    87   43   45 1    
    88   45   46 1    
    89   45   49 1    
    90   45  107 1    
    91   46   47 1    
    92   46  108 1    
    93   46  109 1    
    94   47   48 1    
    95   48  110 1    
    96   48  111 1    
    97   49   50 am   BACKBONE|DICT|INTERRES
    98   49  112 1    
    99   50   51 2    
   100   50   52 1    
   101   52   53 1    
   102   52   54 1    
   103   52  113 1    
   104   53  114 1    
   105   53  115 1    
   106   53  116 1    
   107   54   55 am   BACKBONE|DICT|INTERRES
   108   54  117 1    
   109   55   56 2    
   110   55   57 1    
   111   57   58 1    
   112   57   59 1    
   113   57  118 1    
   114   58  119 1    
   115   58  120 1    
   116   58  121 1    
   117   59   60 am   BACKBONE|DICT|INTERRES
   118   59  122 1    
   119   60   61 2    
   120   60   62 1    
   121   62   63 1    
   122   62   64 1    
   123   62  123 1    
   124   63  124 1    
   125   63  125 1    
   126   63  126 1    
   127   64   65 am   BACKBONE|DICT|INTERRES
   128   64  127 1    
   129   65   66 2    
@<TRIPOS>SUBSTRUCTURE
     1 UNK         1 GROUP             0       ****    0 ROOT    
