@<TRIPOS>MOLECULE
3R135
127   129    1
SMALL
USER_CHARGES


@<TRIPOS>ATOM
      1 CA        -84.8470   29.1583  -70.2863 C.3       0 UNK        -0.1998 
      2 C         -83.7127   28.5914  -71.1272 C.2       0 UNK         0.4909 
      3 O         -83.6114   28.9097  -72.3129 O.2       0 UNK        -0.5240 
      4 N         -82.8546   27.7618  -70.5206 N.am      1 UNK        -0.4739 
      5 CA        -81.7313   27.0894  -71.1831 C.3       1 UNK         0.0864 
      6 C6        -80.7099   26.5357  -70.1562 C.3       11 UNK        -0.0881 
      7 S7        -79.9374   27.8457  -69.1404 S.3       11 UNK        -0.2682 
      8 C8        -78.2099   27.8471  -69.7299 C.3       11 UNK         0.0289 
      9 C9        -78.0091   28.7590  -70.9339 C.ar      11 UNK        -0.0687 
     10 C10       -78.4958   28.3871  -72.1884 C.ar      11 UNK        -0.0823 
     11 C11       -78.3184   29.2151  -73.2999 C.ar      11 UNK        -0.0830 
     12 C12       -77.6364   30.4251  -73.1533 C.ar      11 UNK        -0.1021 
     13 C13       -77.0943   30.7851  -71.9159 C.ar      11 UNK        -0.0753 
     14 C14       -77.3012   29.9585  -70.8059 C.ar      11 UNK        -0.0933 
     15 C15       -76.2608   32.0504  -71.7796 C.3       11 UNK         0.0166 
     16 S16       -74.5086   31.7398  -72.1862 S.3       11 UNK        -0.2615 
     17 C17       -74.5087   31.8579  -74.0105 C.3       11 UNK        -0.0865 
     18 CA        -74.4625   30.4761  -74.7291 C.3       10 UNK         0.0862 
     19 C         -74.7365   30.5922  -76.2605 C.2       10 UNK         0.5551 
     20 N         -74.2380   29.6788  -77.0807 N.am      10 UNK        -0.7319 
     21 O         -75.4237   31.5053  -76.7120 O.2       10 UNK        -0.5018 
     22 N         -73.2776   29.6757  -74.3632 N.am      10 UNK        -0.4509 
     23 C         -72.0070   29.9505  -74.6921 C.2       10 UNK         0.4899 
     24 O         -71.6619   30.9050  -75.3886 O.2       10 UNK        -0.4839 
     25 CA        -70.9298   29.0137  -74.1315 C.3       9 UNK         0.0222 
     26 CB        -70.5783   29.4601  -72.6943 C.3       9 UNK        -0.1966 
     27 N         -71.3521   27.6076  -74.1799 N.am      9 UNK        -0.4218 
     28 C         -70.5980   26.5591  -73.8179 C.2       9 UNK         0.5020 
     29 O         -69.4211   26.6437  -73.4641 O.2       9 UNK        -0.5274 
     30 CA        -71.2656   25.1781  -73.8428 C.3       8 UNK         0.0270 
     31 CB        -72.4946   25.1272  -72.9155 C.3       8 UNK        -0.1976 
     32 N         -71.6507   24.8013  -75.2019 N.am      8 UNK        -0.4313 
     33 C         -70.9429   23.9893  -76.0003 C.2       8 UNK         0.5041 
     34 O         -69.8557   23.5026  -75.6853 O.2       8 UNK        -0.5577 
     35 CA        -71.5453   23.6203  -77.3698 C.3       7 UNK         0.0284 
     36 CB        -71.9721   22.1425  -77.3868 C.3       7 UNK        -0.1958 
     37 N         -72.7001   24.4469  -77.7249 N.am      7 UNK        -0.4454 
     38 C         -72.6180   25.6305  -78.3490 C.2       7 UNK         0.5089 
     39 O         -71.5631   26.1177  -78.7553 O.2       7 UNK        -0.5125 
     40 CA        -73.9267   26.4241  -78.5258 C.3       6 UNK         0.0408 
     41 CB        -74.5549   26.1229  -79.8951 C.3       6 UNK        -0.1791 
     42 N         -74.9208   26.1708  -77.4785 N.am      6 UNK        -0.4762 
     43 C         -74.7425   26.3507  -76.1609 C.2       6 UNK         0.5007 
     44 O         -73.7314   26.8638  -75.6749 O.2       6 UNK        -0.5032 
     45 CA        -75.8387   25.8105  -75.2160 C.3       5 UNK         0.0783 
     46 C46       -76.6480   26.9465  -74.5516 C.3       11 UNK        -0.0857 
     47 S47       -77.5051   28.0785  -75.7074 S.3       11 UNK        -0.2512 
     48 C48       -78.8297   28.7756  -74.6645 C.3       11 UNK         0.0225 
     49 N         -76.7069   24.7809  -75.8023 N.am      5 UNK        -0.4615 
     50 C         -76.2887   23.6059  -76.3023 C.2       4 UNK         0.5053 
     51 O         -75.1011   23.2825  -76.3532 O.2       4 UNK        -0.5105 
     52 CA        -77.3438   22.6257  -76.8529 C.3       4 UNK         0.0263 
     53 CB        -77.4530   21.3924  -75.9415 C.3       4 UNK        -0.1981 
     54 N         -78.6770   23.2075  -77.0219 N.am      4 UNK        -0.4224 
     55 C         -79.0047   24.1689  -77.8960 C.2       3 UNK         0.4895 
     56 O         -78.2223   24.6251  -78.7308 O.2       3 UNK        -0.5091 
     57 CA        -80.4338   24.7419  -77.8083 C.3       3 UNK         0.0250 
     58 CB        -81.2932   24.2121  -78.9681 C.3       3 UNK        -0.1996 
     59 N         -81.1371   24.4955  -76.5387 N.am      3 UNK        -0.4254 
     60 C         -80.7322   24.9164  -75.3322 C.2       2 UNK         0.5004 
     61 O         -79.6561   25.4826  -75.1280 O.2       2 UNK        -0.5226 
     62 CA        -81.6548   24.6192  -74.1457 C.3       2 UNK         0.0269 
     63 CB        -81.3920   23.2061  -73.5920 C.3       2 UNK        -0.1926 
     64 N         -81.3931   25.6216  -73.1163 N.am      2 UNK        -0.4687 
     65 C         -82.2209   25.9646  -72.1233 C.2       1 UNK         0.5165 
     66 O         -83.3071   25.4136  -71.9224 O.2       1 UNK        -0.5079 
     67 H67       -85.8083   28.8637  -70.7063 H         1 UNK         0.0900 
     68 H68       -84.7983   30.2468  -70.2754 H         1 UNK         0.0900 
     69 H69       -84.8052   28.8068  -69.2554 H         1 UNK         0.0900 
     70 H70       -82.9900   27.5277  -69.5477 H         1 UNK         0.2959 
     71 H71       -81.2353   27.8377  -71.8038 H         1 UNK         0.1079 
     72 H72       -79.9272   25.9615  -70.6547 H         1 UNK         0.0837 
     73 H73       -81.1998   25.8318  -69.4805 H         1 UNK         0.0837 
     74 H74       -77.5730   28.1728  -68.9061 H         1 UNK         0.0685 
     75 H75       -77.8872   26.8332  -69.9703 H         1 UNK         0.0685 
     76 H76       -78.9967   27.4390  -72.3049 H         1 UNK         0.1434 
     77 H77       -77.4850   31.0606  -74.0151 H         1 UNK         0.1329 
     78 H78       -76.8910   30.2407  -69.8459 H         1 UNK         0.1335 
     79 H79       -76.6640   32.8462  -72.4076 H         1 UNK         0.0680 
     80 H80       -76.3178   32.4204  -70.7548 H         1 UNK         0.0680 
     81 H81       -73.6546   32.4654  -74.3134 H         1 UNK         0.1032 
     82 H82       -75.3886   32.4249  -74.3178 H         1 UNK         0.1032 
     83 H83       -75.3030   29.8928  -74.3598 H         1 UNK         0.0461 
     84 H84       -73.7210   28.8971  -76.7067 H         1 UNK         0.3453 
     85 H85       -74.4211   29.7509  -78.0679 H         1 UNK         0.3453 
     86 H86       -73.4633   28.8860  -73.7645 H         1 UNK         0.2984 
     87 H87       -70.0427   29.1180  -74.7596 H         1 UNK         0.0554 
     88 H88       -70.3688   30.5302  -72.6568 H         1 UNK         0.0847 
     89 H89       -71.3972   29.2661  -72.0007 H         1 UNK         0.0847 
     90 H90       -69.6906   28.9562  -72.3137 H         1 UNK         0.0847 
     91 H91       -72.2679   27.4260  -74.5844 H         1 UNK         0.3141 
     92 H92       -70.5434   24.4572  -73.4530 H         1 UNK         0.0743 
     93 H93       -72.2115   25.3578  -71.8876 H         1 UNK         0.0784 
     94 H94       -73.2665   25.8397  -73.2035 H         1 UNK         0.0784 
     95 H95       -72.9431   24.1335  -72.9106 H         1 UNK         0.0784 
     96 H96       -72.4901   25.2303  -75.5706 H         1 UNK         0.3213 
     97 H97       -70.7606   23.7530  -78.1180 H         1 UNK         0.0855 
     98 H98       -71.1239   21.4883  -77.1808 H         1 UNK         0.0814 
     99 H99       -72.3725   21.8554  -78.3592 H         1 UNK         0.0814 
    100 H100      -72.7340   21.9332  -76.6348 H         1 UNK         0.0814 
    101 H101      -73.6069   24.1167  -77.4051 H         1 UNK         0.3105 
    102 H102      -73.6681   27.4821  -78.4980 H         1 UNK         0.0547 
    103 H103      -73.8474   26.3198  -80.7019 H         1 UNK         0.0837 
    104 H104      -74.8627   25.0797  -79.9777 H         1 UNK         0.0837 
    105 H105      -75.4310   26.7460  -80.0755 H         1 UNK         0.0837 
    106 H106      -75.7938   25.7557  -77.7755 H         1 UNK         0.3020 
    107 H107      -75.2987   25.3023  -74.4147 H         1 UNK         0.1245 
    108 H108      -75.9947   27.5451  -73.9143 H         1 UNK         0.0781 
    109 H109      -77.3859   26.5019  -73.8837 H         1 UNK         0.0781 
    110 H110      -79.6269   28.0404  -74.5555 H         1 UNK         0.0836 
    111 H111      -79.2753   29.6263  -75.1820 H         1 UNK         0.0836 
    112 H112      -77.7014   24.9831  -75.7826 H         1 UNK         0.3022 
    113 H113      -76.9944   22.2982  -77.8342 H         1 UNK         0.0747 
    114 H114      -78.1330   20.6490  -76.3578 H         1 UNK         0.0793 
    115 H115      -76.4829   20.9077  -75.8207 H         1 UNK         0.0793 
    116 H116      -77.8109   21.6570  -74.9455 H         1 UNK         0.0793 
    117 H117      -79.3875   22.9037  -76.3729 H         1 UNK         0.3047 
    118 H118      -80.3413   25.8245  -77.9195 H         1 UNK         0.0822 
    119 H119      -82.2707   24.6942  -78.9920 H         1 UNK         0.0807 
    120 H120      -81.4496   23.1351  -78.8950 H         1 UNK         0.0807 
    121 H121      -80.8165   24.4073  -79.9300 H         1 UNK         0.0807 
    122 H122      -82.0221   24.0131  -76.6091 H         1 UNK         0.2946 
    123 H123      -82.6931   24.7046  -74.4751 H         1 UNK         0.1144 
    124 H124      -82.0476   22.9790  -72.7512 H         1 UNK         0.0793 
    125 H125      -80.3617   23.0931  -73.2516 H         1 UNK         0.0793 
    126 H126      -81.5715   22.4453  -74.3526 H         1 UNK         0.0793 
    127 H127      -80.5194   26.1123  -73.2568 H         1 UNK         0.2896 
@<TRIPOS>BOND
     1    1    2 1    
     2    1   67 1    
     3    1   68 1    
     4    1   69 1    
     5    2    3 2    
     6    2    4 am   BACKBONE|DICT|INTERRES
     7    4    5 1    
     8    4   70 1    
     9    5    6 1    
    10    5   65 1    
    11    5   71 1    
    12    6    7 1    
    13    6   72 1    
    14    6   73 1    
    15    7    8 1    
    16    8    9 1    
    17    8   74 1    
    18    8   75 1    
    19    9   10 ar   
    20    9   14 ar   
    21   10   11 ar   
    22   10   76 1    
    23   11   12 ar   
    24   11   48 1    
    25   12   13 ar   
    26   12   77 1    
    27   13   14 ar   
    28   13   15 1    
    29   14   78 1    
    30   15   16 1    
    31   15   79 1    
    32   15   80 1    
    33   16   17 1    
    34   17   18 1    
    35   17   81 1    
    36   17   82 1    
    37   18   19 1    
    38   18   22 1    
    39   18   83 1    
    40   19   20 am   BACKBONE|DICT|INTERRES
    41   19   21 2    
    42   20   84 1    
    43   20   85 1    
    44   22   23 am   BACKBONE|DICT|INTERRES
    45   22   86 1    
    46   23   24 2    
    47   23   25 1    
    48   25   26 1    
    49   25   27 1    
    50   25   87 1    
    51   26   88 1    
    52   26   89 1    
    53   26   90 1    
    54   27   28 am   BACKBONE|DICT|INTERRES
    55   27   91 1    
    56   28   29 2    
    57   28   30 1    
    58   30   31 1    
    59   30   32 1    
    60   30   92 1    
    61   31   93 1    
    62   31   94 1    
    63   31   95 1    
    64   32   33 am   BACKBONE|DICT|INTERRES
    65   32   96 1    
    66   33   34 2    
    67   33   35 1    
    68   35   36 1    
    69   35   37 1    
    70   35   97 1    
    71   36   98 1    
    72   36   99 1    
    73   36  100 1    
    74   37   38 am   BACKBONE|DICT|INTERRES
    75   37  101 1    
    76   38   39 2    
    77   38   40 1    
    78   40   41 1    
    79   40   42 1    
    80   40  102 1    
    81   41  103 1    
    82   41  104 1    
    83   41  105 1    
    84   42   43 am   BACKBONE|DICT|INTERRES
    85   42  106 1    
    86   43   44 2    
    87   43   45 1    
    88   45   46 1    
    89   45   49 1    
    90   45  107 1    
    91   46   47 1    
    92   46  108 1    
    93   46  109 1    
    94   47   48 1    
    95   48  110 1    
    96   48  111 1    
    97   49   50 am   BACKBONE|DICT|INTERRES
    98   49  112 1    
    99   50   51 2    
   100   50   52 1    
   101   52   53 1    
   102   52   54 1    
   103   52  113 1    
   104   53  114 1    
   105   53  115 1    
   106   53  116 1    
   107   54   55 am   BACKBONE|DICT|INTERRES
   108   54  117 1    
   109   55   56 2    
   110   55   57 1    
   111   57   58 1    
   112   57   59 1    
   113   57  118 1    
   114   58  119 1    
   115   58  120 1    
   116   58  121 1    
   117   59   60 am   BACKBONE|DICT|INTERRES
   118   59  122 1    
   119   60   61 2    
   120   60   62 1    
   121   62   63 1    
   122   62   64 1    
   123   62  123 1    
   124   63  124 1    
   125   63  125 1    
   126   63  126 1    
   127   64   65 am   BACKBONE|DICT|INTERRES
   128   64  127 1    
   129   65   66 2    
@<TRIPOS>SUBSTRUCTURE
     1 UNK         1 GROUP             0       ****    0 ROOT    
