@<TRIPOS>MOLECULE
3R135
127   129    1
SMALL
USER_CHARGES


@<TRIPOS>ATOM
      1 CA        -79.0040   31.0600  -79.0012 C.3       0 UNK        -0.1998 
      2 C         -79.1713   29.6683  -78.4098 C.2       0 UNK         0.4909 
      3 O         -79.5322   28.7359  -79.1297 O.2       0 UNK        -0.5240 
      4 N         -78.9054   29.5228  -77.1069 N.am      1 UNK        -0.4739 
      5 CA        -79.0493   28.2724  -76.3572 C.3       1 UNK         0.0864 
      6 C6        -78.1536   28.2572  -75.0910 C.3       11 UNK        -0.0881 
      7 S7        -78.4366   29.6665  -73.9594 S.3       11 UNK        -0.2682 
      8 C8        -79.1355   28.8392  -72.4994 C.3       11 UNK         0.0289 
      9 C9        -78.0479   28.2178  -71.6356 C.ar      11 UNK        -0.0687 
     10 C10       -77.7498   26.8546  -71.7390 C.ar      11 UNK        -0.0823 
     11 C11       -76.7647   26.2820  -70.9285 C.ar      11 UNK        -0.0830 
     12 C12       -76.0919   27.0785  -69.9987 C.ar      11 UNK        -0.1021 
     13 C13       -76.3806   28.4409  -69.8855 C.ar      11 UNK        -0.0753 
     14 C14       -77.3550   29.0080  -70.7116 C.ar      11 UNK        -0.0933 
     15 C15       -75.6607   29.2763  -68.8388 C.3       11 UNK         0.0166 
     16 S16       -73.9338   29.6057  -69.3073 S.3       11 UNK        -0.2615 
     17 C17       -74.0366   31.2485  -70.1049 C.3       11 UNK        -0.0865 
     18 CA        -73.3256   31.3492  -71.4806 C.3       10 UNK         0.0862 
     19 C         -71.8051   31.0095  -71.4063 C.2       10 UNK         0.5551 
     20 N         -71.3210   29.9640  -72.0685 N.am      10 UNK        -0.7319 
     21 O         -71.0518   31.7203  -70.7451 O.2       10 UNK        -0.5018 
     22 N         -74.0671   30.6421  -72.5349 N.am      10 UNK        -0.4509 
     23 C         -73.9312   30.9053  -73.8404 C.2       10 UNK         0.4899 
     24 O         -73.2386   31.8191  -74.2938 O.2       10 UNK        -0.4839 
     25 CA        -74.6762   29.9775  -74.8105 C.3       9 UNK         0.0222 
     26 CB        -75.5216   30.7879  -75.8097 C.3       9 UNK        -0.1966 
     27 N         -73.7476   29.1333  -75.5601 N.am      9 UNK        -0.4218 
     28 C         -72.8958   28.2363  -75.0481 C.2       9 UNK         0.5020 
     29 O         -72.7909   28.0106  -73.8407 O.2       9 UNK        -0.5274 
     30 CA        -72.0201   27.4620  -76.0562 C.3       8 UNK         0.0270 
     31 CB        -71.3094   26.2540  -75.4165 C.3       8 UNK        -0.1976 
     32 N         -72.7759   27.0118  -77.2328 N.am      8 UNK        -0.4313 
     33 C         -73.0779   27.7794  -78.2909 C.2       8 UNK         0.5041 
     34 O         -72.7612   28.9671  -78.3684 O.2       8 UNK        -0.5577 
     35 CA        -73.8876   27.1525  -79.4412 C.3       7 UNK         0.0284 
     36 CB        -72.9487   26.6966  -80.5697 C.3       7 UNK        -0.1958 
     37 N         -74.7321   26.0284  -79.0337 N.am      7 UNK        -0.4454 
     38 C         -75.7926   26.1201  -78.2203 C.2       7 UNK         0.5089 
     39 O         -76.1913   27.1775  -77.7346 O.2       7 UNK        -0.5125 
     40 CA        -76.5166   24.8086  -77.8533 C.3       6 UNK         0.0408 
     41 CB        -76.2240   23.6371  -78.8174 C.3       6 UNK        -0.1791 
     42 N         -76.2450   24.4014  -76.4699 N.am      6 UNK        -0.4762 
     43 C         -75.0415   24.2404  -75.8944 C.2       6 UNK         0.5007 
     44 O         -73.9694   24.4231  -76.4739 O.2       6 UNK        -0.5032 
     45 CA        -75.0323   23.7888  -74.4237 C.3       5 UNK         0.0783 
     46 C46       -75.0082   25.0116  -73.4774 C.3       11 UNK        -0.0857 
     47 S47       -74.7780   24.5181  -71.7361 S.3       11 UNK        -0.2512 
     48 C48       -76.4358   24.7999  -71.0350 C.3       11 UNK         0.0225 
     49 N         -76.1473   22.8858  -74.1242 N.am      5 UNK        -0.4615 
     50 C         -76.2078   21.5956  -74.4649 C.2       4 UNK         0.5053 
     51 O         -75.3431   21.0209  -75.1261 O.2       4 UNK        -0.5105 
     52 CA        -77.4251   20.8006  -73.9590 C.3       4 UNK         0.0263 
     53 CB        -77.3995   20.6637  -72.4225 C.3       4 UNK        -0.1981 
     54 N         -78.7303   21.2901  -74.4278 N.am      4 UNK        -0.4224 
     55 C         -79.3278   22.4634  -74.1783 C.2       3 UNK         0.4895 
     56 O         -78.8175   23.3893  -73.5386 O.2       3 UNK        -0.5091 
     57 CA        -80.7523   22.6210  -74.7231 C.3       3 UNK         0.0250 
     58 CB        -81.7622   21.8440  -73.8562 C.3       3 UNK        -0.1996 
     59 N         -81.0801   24.0418  -74.7245 N.am      3 UNK        -0.4254 
     60 C         -82.0455   24.6342  -75.4364 C.2       2 UNK         0.5004 
     61 O         -82.8298   24.0370  -76.1738 O.2       2 UNK        -0.5226 
     62 CA        -82.1008   26.1611  -75.3420 C.3       2 UNK         0.0269 
     63 CB        -82.5659   26.6246  -73.9465 C.3       2 UNK        -0.1926 
     64 N         -80.7811   26.7008  -75.6669 N.am      2 UNK        -0.4687 
     65 C         -80.5257   27.9614  -76.0313 C.2       1 UNK         0.5165 
     66 O         -81.3868   28.8435  -76.0956 O.2       1 UNK        -0.5079 
     67 H67       -78.6730   31.7826  -78.2554 H         1 UNK         0.0900 
     68 H68       -79.9502   31.4082  -79.4145 H         1 UNK         0.0900 
     69 H69       -78.2672   31.0402  -79.8037 H         1 UNK         0.0900 
     70 H70       -78.6600   30.3272  -76.5479 H         1 UNK         0.2959 
     71 H71       -78.7042   27.4657  -77.0075 H         1 UNK         0.1079 
     72 H72       -78.2609   27.3148  -74.5543 H         1 UNK         0.0837 
     73 H73       -77.1083   28.2793  -75.3975 H         1 UNK         0.0837 
     74 H74       -79.8659   28.0903  -72.8094 H         1 UNK         0.0685 
     75 H75       -79.6882   29.5748  -71.9132 H         1 UNK         0.0685 
     76 H76       -78.2875   26.2359  -72.4443 H         1 UNK         0.1434 
     77 H77       -75.3363   26.6368  -69.3631 H         1 UNK         0.1329 
     78 H78       -77.5871   30.0609  -70.6269 H         1 UNK         0.1335 
     79 H79       -76.1896   30.2105  -68.6443 H         1 UNK         0.0680 
     80 H80       -75.6620   28.7316  -67.8934 H         1 UNK         0.0680 
     81 H81       -73.6051   31.9769  -69.4159 H         1 UNK         0.1032 
     82 H82       -75.0810   31.5429  -70.2166 H         1 UNK         0.1032 
     83 H83       -73.3594   32.4074  -71.7481 H         1 UNK         0.0461 
     84 H84       -70.3368   29.7580  -72.0137 H         1 UNK         0.3453 
     85 H85       -71.9362   29.3593  -72.6030 H         1 UNK         0.3453 
     86 H86       -74.6054   29.8394  -72.2404 H         1 UNK         0.2984 
     87 H87       -75.3374   29.3242  -74.2384 H         1 UNK         0.0554 
     88 H88       -76.0685   30.1362  -76.4910 H         1 UNK         0.0847 
     89 H89       -74.9057   31.4543  -76.4151 H         1 UNK         0.0847 
     90 H90       -76.2538   31.4059  -75.2889 H         1 UNK         0.0847 
     91 H91       -73.7032   29.2808  -76.5626 H         1 UNK         0.3141 
     92 H92       -71.2432   28.1542  -76.3879 H         1 UNK         0.0743 
     93 H93       -70.6568   26.5710  -74.6020 H         1 UNK         0.0784 
     94 H94       -72.0196   25.5383  -75.0025 H         1 UNK         0.0784 
     95 H95       -70.6875   25.7287  -76.1414 H         1 UNK         0.0784 
     96 H96       -73.1410   26.0633  -77.1943 H         1 UNK         0.3213 
     97 H97       -74.5426   27.9323  -79.8363 H         1 UNK         0.0855 
     98 H98       -72.3256   27.5227  -80.9158 H         1 UNK         0.0814 
     99 H99       -73.5090   26.3340  -81.4317 H         1 UNK         0.0814 
    100 H100      -72.2797   25.8998  -80.2421 H         1 UNK         0.0814 
    101 H101      -74.4563   25.1116  -79.3542 H         1 UNK         0.3105 
    102 H102      -77.5845   25.0237  -77.9127 H         1 UNK         0.0547 
    103 H103      -76.4310   23.9146  -79.8519 H         1 UNK         0.0837 
    104 H104      -75.1886   23.2993  -78.7614 H         1 UNK         0.0837 
    105 H105      -76.8563   22.7795  -78.5873 H         1 UNK         0.0837 
    106 H106      -77.0567   24.2308  -75.8944 H         1 UNK         0.3020 
    107 H107      -74.1027   23.2331  -74.2774 H         1 UNK         0.1245 
    108 H108      -75.9157   25.6075  -73.5853 H         1 UNK         0.0781 
    109 H109      -74.1814   25.6759  -73.7331 H         1 UNK         0.0781 
    110 H110      -76.4755   24.3544  -70.0400 H         1 UNK         0.0836 
    111 H111      -77.1812   24.2733  -71.6310 H         1 UNK         0.0836 
    112 H112      -76.9444   23.2733  -73.6278 H         1 UNK         0.3022 
    113 H113      -77.3264   19.7946  -74.3704 H         1 UNK         0.0747 
    114 H114      -78.1906   20.0007  -72.0726 H         1 UNK         0.0793 
    115 H115      -76.4517   20.2423  -72.0848 H         1 UNK         0.0793 
    116 H116      -77.5231   21.6232  -71.9195 H         1 UNK         0.0793 
    117 H117      -79.2418   20.6266  -74.9940 H         1 UNK         0.3047 
    118 H118      -80.7772   22.2478  -75.7493 H         1 UNK         0.0822 
    119 H119      -82.7768   21.9387  -74.2434 H         1 UNK         0.0807 
    120 H120      -81.7640   22.2015  -72.8256 H         1 UNK         0.0807 
    121 H121      -81.5274   20.7792  -73.8323 H         1 UNK         0.0807 
    122 H122      -80.4708   24.5929  -74.1325 H         1 UNK         0.2946 
    123 H123      -82.8183   26.5133  -76.0872 H         1 UNK         0.1144 
    124 H124      -82.6981   27.7059  -73.9094 H         1 UNK         0.0793 
    125 H125      -81.8549   26.3502  -73.1667 H         1 UNK         0.0793 
    126 H126      -83.5255   26.1754  -73.6874 H         1 UNK         0.0793 
    127 H127      -80.0316   26.0242  -75.6961 H         1 UNK         0.2896 
@<TRIPOS>BOND
     1    1    2 1    
     2    1   67 1    
     3    1   68 1    
     4    1   69 1    
     5    2    3 2    
     6    2    4 am   BACKBONE|DICT|INTERRES
     7    4    5 1    
     8    4   70 1    
     9    5    6 1    
    10    5   65 1    
    11    5   71 1    
    12    6    7 1    
    13    6   72 1    
    14    6   73 1    
    15    7    8 1    
    16    8    9 1    
    17    8   74 1    
    18    8   75 1    
    19    9   10 ar   
    20    9   14 ar   
    21   10   11 ar   
    22   10   76 1    
    23   11   12 ar   
    24   11   48 1    
    25   12   13 ar   
    26   12   77 1    
    27   13   14 ar   
    28   13   15 1    
    29   14   78 1    
    30   15   16 1    
    31   15   79 1    
    32   15   80 1    
    33   16   17 1    
    34   17   18 1    
    35   17   81 1    
    36   17   82 1    
    37   18   19 1    
    38   18   22 1    
    39   18   83 1    
    40   19   20 am   BACKBONE|DICT|INTERRES
    41   19   21 2    
    42   20   84 1    
    43   20   85 1    
    44   22   23 am   BACKBONE|DICT|INTERRES
    45   22   86 1    
    46   23   24 2    
    47   23   25 1    
    48   25   26 1    
    49   25   27 1    
    50   25   87 1    
    51   26   88 1    
    52   26   89 1    
    53   26   90 1    
    54   27   28 am   BACKBONE|DICT|INTERRES
    55   27   91 1    
    56   28   29 2    
    57   28   30 1    
    58   30   31 1    
    59   30   32 1    
    60   30   92 1    
    61   31   93 1    
    62   31   94 1    
    63   31   95 1    
    64   32   33 am   BACKBONE|DICT|INTERRES
    65   32   96 1    
    66   33   34 2    
    67   33   35 1    
    68   35   36 1    
    69   35   37 1    
    70   35   97 1    
    71   36   98 1    
    72   36   99 1    
    73   36  100 1    
    74   37   38 am   BACKBONE|DICT|INTERRES
    75   37  101 1    
    76   38   39 2    
    77   38   40 1    
    78   40   41 1    
    79   40   42 1    
    80   40  102 1    
    81   41  103 1    
    82   41  104 1    
    83   41  105 1    
    84   42   43 am   BACKBONE|DICT|INTERRES
    85   42  106 1    
    86   43   44 2    
    87   43   45 1    
    88   45   46 1    
    89   45   49 1    
    90   45  107 1    
    91   46   47 1    
    92   46  108 1    
    93   46  109 1    
    94   47   48 1    
    95   48  110 1    
    96   48  111 1    
    97   49   50 am   BACKBONE|DICT|INTERRES
    98   49  112 1    
    99   50   51 2    
   100   50   52 1    
   101   52   53 1    
   102   52   54 1    
   103   52  113 1    
   104   53  114 1    
   105   53  115 1    
   106   53  116 1    
   107   54   55 am   BACKBONE|DICT|INTERRES
   108   54  117 1    
   109   55   56 2    
   110   55   57 1    
   111   57   58 1    
   112   57   59 1    
   113   57  118 1    
   114   58  119 1    
   115   58  120 1    
   116   58  121 1    
   117   59   60 am   BACKBONE|DICT|INTERRES
   118   59  122 1    
   119   60   61 2    
   120   60   62 1    
   121   62   63 1    
   122   62   64 1    
   123   62  123 1    
   124   63  124 1    
   125   63  125 1    
   126   63  126 1    
   127   64   65 am   BACKBONE|DICT|INTERRES
   128   64  127 1    
   129   65   66 2    
@<TRIPOS>SUBSTRUCTURE
     1 UNK         1 GROUP             0       ****    0 ROOT    
