@<TRIPOS>MOLECULE
3R135
127   129    1
SMALL
USER_CHARGES


@<TRIPOS>ATOM
      1 CA        -83.1508   24.0915  -69.7048 C.3       0 UNK        -0.1998 
      2 C         -83.3099   25.1521  -70.7837 C.2       0 UNK         0.4909 
      3 O         -84.4008   25.3075  -71.3331 O.2       0 UNK        -0.5240 
      4 N         -82.2296   25.8834  -71.0910 N.am      1 UNK        -0.4739 
      5 CA        -82.1944   26.9312  -72.1221 C.3       1 UNK         0.0864 
      6 C6        -80.9775   27.8702  -71.9192 C.3       11 UNK        -0.0881 
      7 S7        -81.3258   29.5904  -72.4170 S.3       11 UNK        -0.2682 
      8 C8        -80.0018   30.4880  -71.5451 C.3       11 UNK         0.0289 
      9 C9        -78.6343   30.1468  -72.1169 C.ar      11 UNK        -0.0687 
     10 C10       -77.8600   29.1396  -71.5376 C.ar      11 UNK        -0.0823 
     11 C11       -76.6345   28.7757  -72.1004 C.ar      11 UNK        -0.0830 
     12 C12       -76.1669   29.4573  -73.2299 C.ar      11 UNK        -0.1021 
     13 C13       -76.9145   30.4973  -73.8010 C.ar      11 UNK        -0.0753 
     14 C14       -78.1523   30.8251  -73.2390 C.ar      11 UNK        -0.0933 
     15 C15       -76.4593   31.2781  -75.0372 C.3       11 UNK         0.0166 
     16 S16       -74.6990   31.1233  -75.4960 S.3       11 UNK        -0.2615 
     17 C17       -73.8696   31.9842  -74.1237 C.3       11 UNK        -0.0865 
     18 CA        -72.3549   31.6520  -74.0647 C.3       10 UNK         0.0862 
     19 C         -71.6215   32.6355  -73.1173 C.2       10 UNK         0.5551 
     20 N         -71.2273   33.7983  -73.6168 N.am      10 UNK        -0.7319 
     21 O         -71.4335   32.3686  -71.9308 O.2       10 UNK        -0.5018 
     22 N         -72.0990   30.2720  -73.6281 N.am      10 UNK        -0.4509 
     23 C         -71.6688   29.2619  -74.3933 C.2       10 UNK         0.4899 
     24 O         -71.5601   29.3229  -75.6181 O.2       10 UNK        -0.4839 
     25 CA        -71.2021   27.9904  -73.6638 C.3       9 UNK         0.0222 
     26 CB        -71.6203   27.9092  -72.1797 C.3       9 UNK        -0.1966 
     27 N         -71.6503   26.7839  -74.3629 N.am      9 UNK        -0.4218 
     28 C         -70.8810   25.7095  -74.5825 C.2       9 UNK         0.5020 
     29 O         -69.6809   25.6567  -74.3054 O.2       9 UNK        -0.5274 
     30 CA        -71.5539   24.4542  -75.1617 C.3       8 UNK         0.0270 
     31 CB        -72.2139   23.6420  -74.0351 C.3       8 UNK        -0.1976 
     32 N         -72.5356   24.7231  -76.2141 N.am      8 UNK        -0.4313 
     33 C         -72.2262   25.1040  -77.4618 C.2       8 UNK         0.5041 
     34 O         -71.0756   25.3132  -77.8490 O.2       8 UNK        -0.5577 
     35 CA        -73.3911   25.2521  -78.4574 C.3       7 UNK         0.0284 
     36 CB        -73.8151   23.8815  -79.0101 C.3       7 UNK        -0.1958 
     37 N         -74.5487   25.9185  -77.8632 N.am      7 UNK        -0.4454 
     38 C         -74.5998   27.2246  -77.5718 C.2       7 UNK         0.5089 
     39 O         -73.7305   28.0315  -77.8984 O.2       7 UNK        -0.5125 
     40 CA        -75.8156   27.7100  -76.7629 C.3       6 UNK         0.0408 
     41 CB        -76.9471   28.1851  -77.6866 C.3       6 UNK        -0.1791 
     42 N         -76.3268   26.7123  -75.8213 N.am      6 UNK        -0.4762 
     43 C         -75.6415   26.2382  -74.7698 C.2       6 UNK         0.5007 
     44 O         -74.4962   26.5861  -74.4807 O.2       6 UNK        -0.5032 
     45 CA        -76.3437   25.1487  -73.9394 C.3       5 UNK         0.0783 
     46 C46       -77.3853   25.7635  -72.9667 C.3       11 UNK        -0.0857 
     47 S47       -76.7236   26.0806  -71.2966 S.3       11 UNK        -0.2512 
     48 C48       -75.8096   27.6509  -71.4868 C.3       11 UNK         0.0225 
     49 N         -76.9431   24.1442  -74.8226 N.am      5 UNK        -0.4615 
     50 C         -76.2424   23.2941  -75.5881 C.2       4 UNK         0.5053 
     51 O         -75.0143   23.2325  -75.5845 O.2       4 UNK        -0.5105 
     52 CA        -77.0334   22.3986  -76.5588 C.3       4 UNK         0.0263 
     53 CB        -77.4432   21.0886  -75.8683 C.3       4 UNK        -0.1981 
     54 N         -78.2229   23.0566  -77.1033 N.am      4 UNK        -0.4224 
     55 C         -78.2047   24.1679  -77.8539 C.2       3 UNK         0.4895 
     56 O         -77.1706   24.6943  -78.2623 O.2       3 UNK        -0.5091 
     57 CA        -79.5588   24.8387  -78.1538 C.3       3 UNK         0.0250 
     58 CB        -80.0565   24.4380  -79.5513 C.3       3 UNK        -0.1996 
     59 N         -80.6057   24.5560  -77.1619 N.am      3 UNK        -0.4254 
     60 C         -80.5356   24.8597  -75.8575 C.2       2 UNK         0.5004 
     61 O         -79.5610   25.4060  -75.3339 O.2       2 UNK        -0.5226 
     62 CA        -81.7120   24.3859  -74.9894 C.3       2 UNK         0.0269 
     63 CB        -81.5804   22.8818  -74.6929 C.3       2 UNK        -0.1926 
     64 N         -81.7759   25.1030  -73.7160 N.am      2 UNK        -0.4687 
     65 C         -82.2354   26.3522  -73.5565 C.2       1 UNK         0.5165 
     66 O         -82.7019   27.0259  -74.4769 O.2       1 UNK        -0.5079 
     67 H67       -83.3776   23.1062  -70.1113 H         1 UNK         0.0900 
     68 H68       -83.8382   24.2874  -68.8823 H         1 UNK         0.0900 
     69 H69       -82.1386   24.0673  -69.3017 H         1 UNK         0.0900 
     70 H70       -81.3625   25.7150  -70.6004 H         1 UNK         0.2959 
     71 H71       -83.1072   27.5192  -71.9987 H         1 UNK         0.1079 
     72 H72       -80.7008   27.8970  -70.8640 H         1 UNK         0.0837 
     73 H73       -80.0939   27.5072  -72.4488 H         1 UNK         0.0837 
     74 H74       -80.1823   31.5601  -71.6360 H         1 UNK         0.0685 
     75 H75       -80.0425   30.2617  -70.4785 H         1 UNK         0.0685 
     76 H76       -78.2246   28.6141  -70.6657 H         1 UNK         0.1434 
     77 H77       -75.2187   29.1693  -73.6620 H         1 UNK         0.1329 
     78 H78       -78.7535   31.6059  -73.6852 H         1 UNK         0.1335 
     79 H79       -77.0568   30.9436  -75.8862 H         1 UNK         0.0680 
     80 H80       -76.6827   32.3375  -74.9019 H         1 UNK         0.0680 
     81 H81       -74.3539   31.7322  -73.1787 H         1 UNK         0.1032 
     82 H82       -74.0284   33.0543  -74.2715 H         1 UNK         0.1032 
     83 H83       -71.9276   31.7971  -75.0593 H         1 UNK         0.0461 
     84 H84       -71.3820   34.0298  -74.5861 H         1 UNK         0.3453 
     85 H85       -70.7585   34.4568  -73.0142 H         1 UNK         0.3453 
     86 H86       -72.0925   30.1533  -72.6245 H         1 UNK         0.2984 
     87 H87       -70.1119   28.0414  -73.6904 H         1 UNK         0.0554 
     88 H88       -71.2816   26.9772  -71.7267 H         1 UNK         0.0847 
     89 H89       -72.7016   27.9576  -72.0623 H         1 UNK         0.0847 
     90 H90       -71.1813   28.7177  -71.5940 H         1 UNK         0.0847 
     91 H91       -72.6372   26.7504  -74.6149 H         1 UNK         0.3141 
     92 H92       -70.7658   23.8352  -75.5961 H         1 UNK         0.0743 
     93 H93       -73.0482   24.1812  -73.5851 H         1 UNK         0.0784 
     94 H94       -72.5905   22.6874  -74.4029 H         1 UNK         0.0784 
     95 H95       -71.5000   23.4220  -73.2401 H         1 UNK         0.0784 
     96 H96       -73.5038   24.5126  -75.9929 H         1 UNK         0.3213 
     97 H97       -73.0401   25.8597  -79.2945 H         1 UNK         0.0855 
     98 H98       -74.1739   23.2190  -78.2222 H         1 UNK         0.0814 
     99 H99       -72.9768   23.3830  -79.4985 H         1 UNK         0.0814 
    100 H100      -74.6100   23.9811  -79.7496 H         1 UNK         0.0814 
    101 H101      -75.3659   25.3502  -77.6636 H         1 UNK         0.3105 
    102 H102      -75.4867   28.5590  -76.1680 H         1 UNK         0.0547 
    103 H103      -76.6007   28.9894  -78.3370 H         1 UNK         0.0837 
    104 H104      -77.3112   27.3832  -78.3284 H         1 UNK         0.0837 
    105 H105      -77.7908   28.5724  -77.1152 H         1 UNK         0.0837 
    106 H106      -77.2577   26.3546  -75.9888 H         1 UNK         0.3020 
    107 H107      -75.5744   24.6368  -73.3565 H         1 UNK         0.1245 
    108 H108      -78.2108   25.0648  -72.8217 H         1 UNK         0.0781 
    109 H109      -77.8548   26.6634  -73.3695 H         1 UNK         0.0781 
    110 H110      -74.9172   27.4588  -72.0791 H         1 UNK         0.0836 
    111 H111      -75.4565   27.9707  -70.5057 H         1 UNK         0.0836 
    112 H112      -77.9477   24.2071  -74.9426 H         1 UNK         0.3022 
    113 H113      -76.3748   22.1554  -77.3952 H         1 UNK         0.0747 
    114 H114      -77.9329   20.4084  -76.5656 H         1 UNK         0.0793 
    115 H115      -76.5701   20.5687  -75.4710 H         1 UNK         0.0793 
    116 H116      -78.1247   21.2651  -75.0350 H         1 UNK         0.0793 
    117 H117      -79.1186   22.6819  -76.8287 H         1 UNK         0.3047 
    118 H118      -79.3892   25.9173  -78.1478 H         1 UNK         0.0822 
    119 H119      -80.9610   24.9827  -79.8228 H         1 UNK         0.0807 
    120 H120      -80.2739   23.3709  -79.6130 H         1 UNK         0.0807 
    121 H121      -79.3065   24.6621  -80.3114 H         1 UNK         0.0807 
    122 H122      -81.4336   24.0912  -77.5075 H         1 UNK         0.2946 
    123 H123      -82.6411   24.5631  -75.5363 H         1 UNK         0.1144 
    124 H124      -80.6546   22.6529  -74.1630 H         1 UNK         0.0793 
    125 H125      -81.5849   22.2940  -75.6117 H         1 UNK         0.0793 
    126 H126      -82.4110   22.5251  -74.0832 H         1 UNK         0.0793 
    127 H127      -81.3967   24.6315  -72.9088 H         1 UNK         0.2896 
@<TRIPOS>BOND
     1    1    2 1    
     2    1   67 1    
     3    1   68 1    
     4    1   69 1    
     5    2    3 2    
     6    2    4 am   BACKBONE|DICT|INTERRES
     7    4    5 1    
     8    4   70 1    
     9    5    6 1    
    10    5   65 1    
    11    5   71 1    
    12    6    7 1    
    13    6   72 1    
    14    6   73 1    
    15    7    8 1    
    16    8    9 1    
    17    8   74 1    
    18    8   75 1    
    19    9   10 ar   
    20    9   14 ar   
    21   10   11 ar   
    22   10   76 1    
    23   11   12 ar   
    24   11   48 1    
    25   12   13 ar   
    26   12   77 1    
    27   13   14 ar   
    28   13   15 1    
    29   14   78 1    
    30   15   16 1    
    31   15   79 1    
    32   15   80 1    
    33   16   17 1    
    34   17   18 1    
    35   17   81 1    
    36   17   82 1    
    37   18   19 1    
    38   18   22 1    
    39   18   83 1    
    40   19   20 am   BACKBONE|DICT|INTERRES
    41   19   21 2    
    42   20   84 1    
    43   20   85 1    
    44   22   23 am   BACKBONE|DICT|INTERRES
    45   22   86 1    
    46   23   24 2    
    47   23   25 1    
    48   25   26 1    
    49   25   27 1    
    50   25   87 1    
    51   26   88 1    
    52   26   89 1    
    53   26   90 1    
    54   27   28 am   BACKBONE|DICT|INTERRES
    55   27   91 1    
    56   28   29 2    
    57   28   30 1    
    58   30   31 1    
    59   30   32 1    
    60   30   92 1    
    61   31   93 1    
    62   31   94 1    
    63   31   95 1    
    64   32   33 am   BACKBONE|DICT|INTERRES
    65   32   96 1    
    66   33   34 2    
    67   33   35 1    
    68   35   36 1    
    69   35   37 1    
    70   35   97 1    
    71   36   98 1    
    72   36   99 1    
    73   36  100 1    
    74   37   38 am   BACKBONE|DICT|INTERRES
    75   37  101 1    
    76   38   39 2    
    77   38   40 1    
    78   40   41 1    
    79   40   42 1    
    80   40  102 1    
    81   41  103 1    
    82   41  104 1    
    83   41  105 1    
    84   42   43 am   BACKBONE|DICT|INTERRES
    85   42  106 1    
    86   43   44 2    
    87   43   45 1    
    88   45   46 1    
    89   45   49 1    
    90   45  107 1    
    91   46   47 1    
    92   46  108 1    
    93   46  109 1    
    94   47   48 1    
    95   48  110 1    
    96   48  111 1    
    97   49   50 am   BACKBONE|DICT|INTERRES
    98   49  112 1    
    99   50   51 2    
   100   50   52 1    
   101   52   53 1    
   102   52   54 1    
   103   52  113 1    
   104   53  114 1    
   105   53  115 1    
   106   53  116 1    
   107   54   55 am   BACKBONE|DICT|INTERRES
   108   54  117 1    
   109   55   56 2    
   110   55   57 1    
   111   57   58 1    
   112   57   59 1    
   113   57  118 1    
   114   58  119 1    
   115   58  120 1    
   116   58  121 1    
   117   59   60 am   BACKBONE|DICT|INTERRES
   118   59  122 1    
   119   60   61 2    
   120   60   62 1    
   121   62   63 1    
   122   62   64 1    
   123   62  123 1    
   124   63  124 1    
   125   63  125 1    
   126   63  126 1    
   127   64   65 am   BACKBONE|DICT|INTERRES
   128   64  127 1    
   129   65   66 2    
@<TRIPOS>SUBSTRUCTURE
     1 UNK         1 GROUP             0       ****    0 ROOT    
