@<TRIPOS>MOLECULE
3R135
127   129    1
SMALL
USER_CHARGES


@<TRIPOS>ATOM
      1 CA        -84.3944   25.8514  -70.8121 C.3       0 UNK        -0.1998 
      2 C         -83.9846   26.4778  -72.1366 C.2       0 UNK         0.4909 
      3 O         -84.8278   26.6570  -73.0167 O.2       0 UNK        -0.5240 
      4 N         -82.6985   26.8210  -72.2788 N.am      1 UNK        -0.4739 
      5 CA        -82.1109   27.3816  -73.5017 C.3       1 UNK         0.0864 
      6 C6        -80.7385   28.0458  -73.2294 C.3       11 UNK        -0.0881 
      7 S7        -80.8395   29.3880  -71.9942 S.3       11 UNK        -0.2682 
      8 C8        -79.4538   28.9739  -70.8718 C.3       11 UNK         0.0289 
      9 C9        -78.0625   28.9623  -71.5128 C.ar      11 UNK        -0.0687 
     10 C10       -77.7934   29.5920  -72.7337 C.ar      11 UNK        -0.0823 
     11 C11       -76.5291   29.5080  -73.3175 C.ar      11 UNK        -0.0830 
     12 C12       -75.5073   28.8305  -72.6512 C.ar      11 UNK        -0.1021 
     13 C13       -75.7371   28.2334  -71.4062 C.ar      11 UNK        -0.0753 
     14 C14       -77.0219   28.2974  -70.8547 C.ar      11 UNK        -0.0933 
     15 C15       -74.6458   27.4838  -70.6371 C.3       11 UNK         0.0166 
     16 S16       -72.9182   27.8568  -71.1121 S.3       11 UNK        -0.2615 
     17 C17       -72.7907   29.6457  -70.7404 C.3       11 UNK        -0.0865 
     18 CA        -71.8740   30.4242  -71.7261 C.3       10 UNK         0.0862 
     19 C         -70.3645   30.2562  -71.3775 C.2       10 UNK         0.5551 
     20 N         -69.5223   29.7243  -72.2559 N.am      10 UNK        -0.7319 
     21 O         -69.9456   30.6351  -70.2863 O.2       10 UNK        -0.5018 
     22 N         -72.2174   30.1386  -73.1270 N.am      10 UNK        -0.4509 
     23 C         -71.9606   30.9312  -74.1738 C.2       10 UNK         0.4899 
     24 O         -71.5160   32.0751  -74.0672 O.2       10 UNK        -0.4839 
     25 CA        -72.2481   30.3444  -75.5754 C.3       9 UNK         0.0222 
     26 CB        -71.3567   30.9744  -76.6662 C.3       9 UNK        -0.1966 
     27 N         -72.1778   28.8752  -75.6503 N.am      9 UNK        -0.4218 
     28 C         -71.1306   28.0980  -75.3270 C.2       9 UNK         0.5020 
     29 O         -70.0718   28.5257  -74.8655 O.2       9 UNK        -0.5274 
     30 CA        -71.2994   26.5834  -75.5219 C.3       8 UNK         0.0270 
     31 CB        -71.8910   25.9494  -74.2520 C.3       8 UNK        -0.1976 
     32 N         -72.1241   26.2344  -76.6845 N.am      8 UNK        -0.4313 
     33 C         -71.7113   26.3475  -77.9584 C.2       8 UNK         0.5041 
     34 O         -70.6015   26.7854  -78.2663 O.2       8 UNK        -0.5577 
     35 CA        -72.6652   25.8854  -79.0783 C.3       7 UNK         0.0284 
     36 CB        -71.9185   25.1928  -80.2348 C.3       7 UNK        -0.1958 
     37 N         -73.7026   24.9880  -78.5698 N.am      7 UNK        -0.4454 
     38 C         -75.0043   25.0631  -78.8695 C.2       7 UNK         0.5089 
     39 O         -75.4779   25.8425  -79.6973 O.2       7 UNK        -0.5125 
     40 CA        -75.9558   24.1476  -78.0743 C.3       6 UNK         0.0408 
     41 CB        -75.3064   22.8308  -77.5934 C.3       6 UNK        -0.1791 
     42 N         -76.5601   24.8775  -76.9552 N.am      6 UNK        -0.4762 
     43 C         -75.9121   25.5069  -75.9606 C.2       6 UNK         0.5007 
     44 O         -74.6942   25.4549  -75.7875 O.2       6 UNK        -0.5032 
     45 CA        -76.7749   26.3484  -75.0082 C.3       5 UNK         0.0783 
     46 C46       -77.2830   27.6388  -75.7041 C.3       11 UNK        -0.0857 
     47 S47       -75.9311   28.8489  -75.9522 S.3       11 UNK        -0.2512 
     48 C48       -76.2853   30.1166  -74.6903 C.3       11 UNK         0.0225 
     49 N         -77.8574   25.5180  -74.4798 N.am      5 UNK        -0.4615 
     50 C         -77.7205   24.7061  -73.4193 C.2       4 UNK         0.5053 
     51 O         -76.7411   24.7159  -72.6740 O.2       4 UNK        -0.5105 
     52 CA        -78.8417   23.6849  -73.1475 C.3       4 UNK         0.0263 
     53 CB        -79.7690   24.1675  -72.0209 C.3       4 UNK        -0.1981 
     54 N         -79.6242   23.3701  -74.3469 N.am      4 UNK        -0.4224 
     55 C         -79.1663   22.6040  -75.3508 C.2       3 UNK         0.4895 
     56 O         -78.1003   21.9905  -75.3025 O.2       3 UNK        -0.5091 
     57 CA        -80.0086   22.5139  -76.6383 C.3       3 UNK         0.0250 
     58 CB        -80.7983   21.1955  -76.6717 C.3       3 UNK        -0.1996 
     59 N         -80.9345   23.6318  -76.8412 N.am      3 UNK        -0.4254 
     60 C         -80.5877   24.9187  -76.9816 C.2       2 UNK         0.5004 
     61 O         -79.4212   25.3152  -76.9707 O.2       2 UNK        -0.5226 
     62 CA        -81.7293   25.9493  -77.0855 C.3       2 UNK         0.0269 
     63 CB        -83.0982   25.3327  -77.4543 C.3       2 UNK        -0.1926 
     64 N         -81.8544   26.7602  -75.8648 N.am      2 UNK        -0.4687 
     65 C         -81.9874   26.3094  -74.6068 C.2       1 UNK         0.5165 
     66 O         -81.9799   25.1118  -74.3058 O.2       1 UNK        -0.5079 
     67 H67       -84.8008   24.8543  -70.9796 H         1 UNK         0.0900 
     68 H68       -85.1625   26.4571  -70.3318 H         1 UNK         0.0900 
     69 H69       -83.5530   25.7632  -70.1250 H         1 UNK         0.0900 
     70 H70       -82.0531   26.6523  -71.5219 H         1 UNK         0.2959 
     71 H71       -82.7935   28.1502  -73.8720 H         1 UNK         0.1079 
     72 H72       -80.0048   27.3058  -72.9067 H         1 UNK         0.0837 
     73 H73       -80.3383   28.4820  -74.1462 H         1 UNK         0.0837 
     74 H74       -79.4491   29.6944  -70.0531 H         1 UNK         0.0685 
     75 H75       -79.6575   27.9994  -70.4252 H         1 UNK         0.0685 
     76 H76       -78.5729   30.1270  -73.2561 H         1 UNK         0.1434 
     77 H77       -74.5421   28.7537  -73.1255 H         1 UNK         0.1329 
     78 H78       -77.2158   27.8175  -69.9049 H         1 UNK         0.1335 
     79 H79       -74.7515   27.6821  -69.5694 H         1 UNK         0.0680 
     80 H80       -74.8115   26.4138  -70.7709 H         1 UNK         0.0680 
     81 H81       -72.4584   29.7692  -69.7078 H         1 UNK         0.1032 
     82 H82       -73.7866   30.0886  -70.7692 H         1 UNK         0.1032 
     83 H83       -72.0791   31.4839  -71.5620 H         1 UNK         0.0461 
     84 H84       -68.5503   29.6334  -72.0086 H         1 UNK         0.3453 
     85 H85       -69.8409   29.3969  -73.1632 H         1 UNK         0.3453 
     86 H86       -72.5376   29.1988  -73.3032 H         1 UNK         0.2984 
     87 H87       -73.2803   30.6094  -75.8053 H         1 UNK         0.0554 
     88 H88       -71.5870   30.5678  -77.6510 H         1 UNK         0.0847 
     89 H89       -70.2980   30.8000  -76.4714 H         1 UNK         0.0847 
     90 H90       -71.5040   32.0537  -76.7218 H         1 UNK         0.0847 
     91 H91       -73.0075   28.4158  -76.0006 H         1 UNK         0.3141 
     92 H92       -70.3044   26.1594  -75.6747 H         1 UNK         0.0743 
     93 H93       -72.8787   26.3493  -74.0187 H         1 UNK         0.0784 
     94 H94       -71.9843   24.8681  -74.3532 H         1 UNK         0.0784 
     95 H95       -71.2531   26.1403  -73.3878 H         1 UNK         0.0784 
     96 H96       -73.0680   25.9049  -76.4831 H         1 UNK         0.3213 
     97 H97       -73.1254   26.7968  -79.4663 H         1 UNK         0.0855 
     98 H98       -71.3972   24.2969  -79.8960 H         1 UNK         0.0814 
     99 H99       -71.1758   25.8563  -80.6795 H         1 UNK         0.0814 
    100 H100      -72.6043   24.9014  -81.0304 H         1 UNK         0.0814 
    101 H101      -73.4152   24.3276  -77.8607 H         1 UNK         0.3105 
    102 H102      -76.7716   23.8836  -78.7489 H         1 UNK         0.0547 
    103 H103      -74.8388   22.2985  -78.4228 H         1 UNK         0.0837 
    104 H104      -74.5454   22.9877  -76.8289 H         1 UNK         0.0837 
    105 H105      -76.0564   22.1633  -77.1695 H         1 UNK         0.0837 
    106 H106      -77.5665   25.0173  -77.0214 H         1 UNK         0.3020 
    107 H107      -76.1365   26.6454  -74.1740 H         1 UNK         0.1245 
    108 H108      -78.0748   28.0981  -75.1135 H         1 UNK         0.0781 
    109 H109      -77.7377   27.4215  -76.6722 H         1 UNK         0.0781 
    110 H110      -77.1462   30.7027  -75.0158 H         1 UNK         0.0836 
    111 H111      -75.4475   30.8122  -74.6324 H         1 UNK         0.0836 
    112 H112      -78.6611   25.4047  -75.0861 H         1 UNK         0.3022 
    113 H113      -78.3622   22.7651  -72.8050 H         1 UNK         0.0747 
    114 H114      -80.5376   23.4281  -71.7955 H         1 UNK         0.0793 
    115 H115      -79.2063   24.3419  -71.1028 H         1 UNK         0.0793 
    116 H116      -80.2677   25.0997  -72.2756 H         1 UNK         0.0793 
    117 H117      -80.5204   23.8415  -74.4459 H         1 UNK         0.3047 
    118 H118      -79.3083   22.5151  -77.4764 H         1 UNK         0.0822 
    119 H119      -81.3216   21.0688  -77.6196 H         1 UNK         0.0807 
    120 H120      -81.5361   21.1470  -75.8697 H         1 UNK         0.0807 
    121 H121      -80.1332   20.3384  -76.5548 H         1 UNK         0.0807 
    122 H122      -81.9193   23.4103  -76.8175 H         1 UNK         0.2946 
    123 H123      -81.4441   26.6280  -77.8914 H         1 UNK         0.1144 
    124 H124      -83.0324   24.7381  -78.3668 H         1 UNK         0.0793 
    125 H125      -83.8369   26.1128  -77.6387 H         1 UNK         0.0793 
    126 H126      -83.4934   24.6928  -76.6645 H         1 UNK         0.0793 
    127 H127      -81.8310   27.7600  -76.0125 H         1 UNK         0.2896 
@<TRIPOS>BOND
     1    1    2 1    
     2    1   67 1    
     3    1   68 1    
     4    1   69 1    
     5    2    3 2    
     6    2    4 am   BACKBONE|DICT|INTERRES
     7    4    5 1    
     8    4   70 1    
     9    5    6 1    
    10    5   65 1    
    11    5   71 1    
    12    6    7 1    
    13    6   72 1    
    14    6   73 1    
    15    7    8 1    
    16    8    9 1    
    17    8   74 1    
    18    8   75 1    
    19    9   10 ar   
    20    9   14 ar   
    21   10   11 ar   
    22   10   76 1    
    23   11   12 ar   
    24   11   48 1    
    25   12   13 ar   
    26   12   77 1    
    27   13   14 ar   
    28   13   15 1    
    29   14   78 1    
    30   15   16 1    
    31   15   79 1    
    32   15   80 1    
    33   16   17 1    
    34   17   18 1    
    35   17   81 1    
    36   17   82 1    
    37   18   19 1    
    38   18   22 1    
    39   18   83 1    
    40   19   20 am   BACKBONE|DICT|INTERRES
    41   19   21 2    
    42   20   84 1    
    43   20   85 1    
    44   22   23 am   BACKBONE|DICT|INTERRES
    45   22   86 1    
    46   23   24 2    
    47   23   25 1    
    48   25   26 1    
    49   25   27 1    
    50   25   87 1    
    51   26   88 1    
    52   26   89 1    
    53   26   90 1    
    54   27   28 am   BACKBONE|DICT|INTERRES
    55   27   91 1    
    56   28   29 2    
    57   28   30 1    
    58   30   31 1    
    59   30   32 1    
    60   30   92 1    
    61   31   93 1    
    62   31   94 1    
    63   31   95 1    
    64   32   33 am   BACKBONE|DICT|INTERRES
    65   32   96 1    
    66   33   34 2    
    67   33   35 1    
    68   35   36 1    
    69   35   37 1    
    70   35   97 1    
    71   36   98 1    
    72   36   99 1    
    73   36  100 1    
    74   37   38 am   BACKBONE|DICT|INTERRES
    75   37  101 1    
    76   38   39 2    
    77   38   40 1    
    78   40   41 1    
    79   40   42 1    
    80   40  102 1    
    81   41  103 1    
    82   41  104 1    
    83   41  105 1    
    84   42   43 am   BACKBONE|DICT|INTERRES
    85   42  106 1    
    86   43   44 2    
    87   43   45 1    
    88   45   46 1    
    89   45   49 1    
    90   45  107 1    
    91   46   47 1    
    92   46  108 1    
    93   46  109 1    
    94   47   48 1    
    95   48  110 1    
    96   48  111 1    
    97   49   50 am   BACKBONE|DICT|INTERRES
    98   49  112 1    
    99   50   51 2    
   100   50   52 1    
   101   52   53 1    
   102   52   54 1    
   103   52  113 1    
   104   53  114 1    
   105   53  115 1    
   106   53  116 1    
   107   54   55 am   BACKBONE|DICT|INTERRES
   108   54  117 1    
   109   55   56 2    
   110   55   57 1    
   111   57   58 1    
   112   57   59 1    
   113   57  118 1    
   114   58  119 1    
   115   58  120 1    
   116   58  121 1    
   117   59   60 am   BACKBONE|DICT|INTERRES
   118   59  122 1    
   119   60   61 2    
   120   60   62 1    
   121   62   63 1    
   122   62   64 1    
   123   62  123 1    
   124   63  124 1    
   125   63  125 1    
   126   63  126 1    
   127   64   65 am   BACKBONE|DICT|INTERRES
   128   64  127 1    
   129   65   66 2    
@<TRIPOS>SUBSTRUCTURE
     1 UNK         1 GROUP             0       ****    0 ROOT    
