@<TRIPOS>MOLECULE
3R135
127   129    1
SMALL
USER_CHARGES


@<TRIPOS>ATOM
      1 CA        -80.2778   23.2538  -69.1583 C.3       0 UNK        -0.1998 
      2 C         -81.3430   24.0366  -69.9110 C.2       0 UNK         0.4909 
      3 O         -82.5328   23.8635  -69.6475 O.2       0 UNK        -0.5240 
      4 N         -80.9249   24.8887  -70.8561 N.am      1 UNK        -0.4739 
      5 CA        -81.8001   25.7619  -71.6541 C.3       1 UNK         0.0864 
      6 C6        -81.0715   27.0545  -72.1089 C.3       11 UNK        -0.0881 
      7 S7        -80.5387   28.0842  -70.6958 S.3       11 UNK        -0.2682 
      8 C8        -78.7420   28.2697  -70.9802 C.3       11 UNK         0.0289 
      9 C9        -78.3311   29.3341  -72.0025 C.ar      11 UNK        -0.0687 
     10 C10       -79.1965   29.8095  -72.9974 C.ar      11 UNK        -0.0823 
     11 C11       -78.7733   30.7756  -73.9144 C.ar      11 UNK        -0.0830 
     12 C12       -77.4761   31.2851  -73.8276 C.ar      11 UNK        -0.1021 
     13 C13       -76.5932   30.8106  -72.8555 C.ar      11 UNK        -0.0753 
     14 C14       -77.0267   29.8383  -71.9485 C.ar      11 UNK        -0.0933 
     15 C15       -75.1731   31.3543  -72.7896 C.3       11 UNK         0.0166 
     16 S16       -74.1614   30.7995  -74.1990 S.3       11 UNK        -0.2615 
     17 C17       -73.9224   29.0329  -73.8065 C.3       11 UNK        -0.0865 
     18 CA        -72.5910   28.7655  -73.0600 C.3       10 UNK         0.0862 
     19 C         -72.5255   27.3055  -72.5206 C.2       10 UNK         0.5551 
     20 N         -71.5521   26.4852  -72.9016 N.am      10 UNK        -0.7319 
     21 O         -73.3689   26.9151  -71.7174 O.2       10 UNK        -0.5018 
     22 N         -71.4309   29.1630  -73.8714 N.am      10 UNK        -0.4509 
     23 C         -70.2281   29.4859  -73.3787 C.2       10 UNK         0.4899 
     24 O         -69.9910   29.5857  -72.1736 O.2       10 UNK        -0.4839 
     25 CA        -69.0991   29.7342  -74.4045 C.3       9 UNK         0.0222 
     26 CB        -67.6962   29.4901  -73.8078 C.3       9 UNK        -0.1966 
     27 N         -69.2597   28.9850  -75.6604 N.am      9 UNK        -0.4218 
     28 C         -69.3743   27.6555  -75.7941 C.2       9 UNK         0.5020 
     29 O         -69.3377   26.8549  -74.8559 O.2       9 UNK        -0.5274 
     30 CA        -69.5998   27.1307  -77.2205 C.3       8 UNK         0.0270 
     31 CB        -68.3469   26.4064  -77.7393 C.3       8 UNK        -0.1976 
     32 N         -70.7460   26.2207  -77.2668 N.am      8 UNK        -0.4313 
     33 C         -72.0133   26.5847  -77.0320 C.2       8 UNK         0.5041 
     34 O         -72.3602   27.7443  -76.7907 O.2       8 UNK        -0.5577 
     35 CA        -73.0534   25.4529  -77.0336 C.3       7 UNK         0.0284 
     36 CB        -73.2010   24.8539  -75.6262 C.3       7 UNK        -0.1958 
     37 N         -74.3588   25.9205  -77.5052 N.am      7 UNK        -0.4454 
     38 C         -74.6485   26.1487  -78.7950 C.2       7 UNK         0.5089 
     39 O         -73.8412   25.9678  -79.7085 O.2       7 UNK        -0.5125 
     40 CA        -76.0702   26.6231  -79.1558 C.3       6 UNK         0.0408 
     41 CB        -76.7877   25.5677  -80.0149 C.3       6 UNK        -0.1791 
     42 N         -76.8989   26.9170  -77.9851 N.am      6 UNK        -0.4762 
     43 C         -76.9583   28.1106  -77.3733 C.2       6 UNK         0.5007 
     44 O         -76.3267   29.0959  -77.7557 O.2       6 UNK        -0.5032 
     45 CA        -77.8540   28.2194  -76.1142 C.3       5 UNK         0.0783 
     46 C46       -79.2403   28.8378  -76.4403 C.3       11 UNK        -0.0857 
     47 S47       -79.1816   30.6501  -76.6557 S.3       11 UNK        -0.2512 
     48 C48       -79.7086   31.2507  -75.0169 C.3       11 UNK         0.0225 
     49 N         -78.0085   26.9387  -75.4140 N.am      5 UNK        -0.4615 
     50 C         -77.0052   26.2477  -74.8569 C.2       4 UNK         0.5053 
     51 O         -75.8486   26.6562  -74.8124 O.2       4 UNK        -0.5105 
     52 CA        -77.3166   24.8411  -74.3163 C.3       4 UNK         0.0263 
     53 CB        -77.4072   24.8497  -72.7831 C.3       4 UNK        -0.1981 
     54 N         -78.5271   24.2229  -74.8695 N.am      4 UNK        -0.4224 
     55 C         -78.7193   23.9079  -76.1607 C.2       3 UNK         0.4895 
     56 O         -77.9178   24.1937  -77.0505 O.2       3 UNK        -0.5091 
     57 CA        -80.0171   23.1706  -76.5325 C.3       3 UNK         0.0250 
     58 CB        -79.7148   21.8187  -77.2041 C.3       3 UNK        -0.1996 
     59 N         -80.8893   22.9550  -75.3727 N.am      3 UNK        -0.4254 
     60 C         -82.2200   23.1010  -75.3733 C.2       2 UNK         0.5004 
     61 O         -82.8852   23.4030  -76.3648 O.2       2 UNK        -0.5226 
     62 CA        -82.9188   22.8938  -74.0205 C.3       2 UNK         0.0269 
     63 CB        -82.9075   21.4119  -73.6068 C.3       2 UNK        -0.1926 
     64 N         -82.3202   23.7105  -72.9586 N.am      2 UNK        -0.4687 
     65 C         -82.4720   25.0400  -72.8488 C.2       1 UNK         0.5165 
     66 O         -83.1286   25.7034  -73.6529 O.2       1 UNK        -0.5079 
     67 H67       -79.2729   23.4947  -69.5040 H         1 UNK         0.0900 
     68 H68       -80.3321   23.4775  -68.0935 H         1 UNK         0.0900 
     69 H69       -80.4342   22.1836  -69.2898 H         1 UNK         0.0900 
     70 H70       -79.9346   25.0006  -71.0116 H         1 UNK         0.2959 
     71 H71       -82.6292   26.0746  -71.0147 H         1 UNK         0.1079 
     72 H72       -81.7368   27.6747  -72.7126 H         1 UNK         0.0837 
     73 H73       -80.2200   26.8170  -72.7481 H         1 UNK         0.0837 
     74 H74       -78.2946   28.5223  -70.0176 H         1 UNK         0.0685 
     75 H75       -78.3123   27.3115  -71.2664 H         1 UNK         0.0685 
     76 H76       -80.2035   29.4310  -73.0744 H         1 UNK         0.1434 
     77 H77       -77.1422   32.0291  -74.5384 H         1 UNK         0.1329 
     78 H78       -76.3432   29.4706  -71.1949 H         1 UNK         0.1335 
     79 H79       -75.2087   32.4446  -72.7910 H         1 UNK         0.0680 
     80 H80       -74.6845   31.0655  -71.8576 H         1 UNK         0.0680 
     81 H81       -73.9462   28.4721  -74.7422 H         1 UNK         0.1032 
     82 H82       -74.7756   28.6738  -73.2291 H         1 UNK         0.1032 
     83 H83       -72.5969   29.3965  -72.1691 H         1 UNK         0.0461 
     84 H84       -71.5257   25.5520  -72.5248 H         1 UNK         0.3453 
     85 H85       -70.8339   26.7834  -73.5535 H         1 UNK         0.3453 
     86 H86       -71.5463   29.0763  -74.8724 H         1 UNK         0.2984 
     87 H87       -69.1645   30.7901  -74.6709 H         1 UNK         0.0554 
     88 H88       -67.5120   30.1442  -72.9545 H         1 UNK         0.0847 
     89 H89       -66.9127   29.6889  -74.5390 H         1 UNK         0.0847 
     90 H90       -67.5783   28.4629  -73.4607 H         1 UNK         0.0847 
     91 H91       -69.3297   29.5515  -76.4952 H         1 UNK         0.3141 
     92 H92       -69.8120   27.9711  -77.8850 H         1 UNK         0.0743 
     93 H93       -68.0948   25.5425  -77.1224 H         1 UNK         0.0784 
     94 H94       -68.4827   26.0603  -78.7642 H         1 UNK         0.0784 
     95 H95       -67.4825   27.0720  -77.7350 H         1 UNK         0.0784 
     96 H96       -70.5379   25.2432  -77.4108 H         1 UNK         0.3213 
     97 H97       -72.7116   24.6623  -77.7056 H         1 UNK         0.0855 
     98 H98       -73.4887   25.6101  -74.8962 H         1 UNK         0.0814 
     99 H99       -72.2598   24.4213  -75.2848 H         1 UNK         0.0814 
    100 H100      -73.9502   24.0625  -75.6042 H         1 UNK         0.0814 
    101 H101      -75.0362   26.1715  -76.7956 H         1 UNK         0.3105 
    102 H102      -75.9657   27.5265  -79.7601 H         1 UNK         0.0547 
    103 H103      -77.7885   25.8958  -80.2956 H         1 UNK         0.0837 
    104 H104      -76.8803   24.6153  -79.4919 H         1 UNK         0.0837 
    105 H105      -76.2402   25.3775  -80.9389 H         1 UNK         0.0837 
    106 H106      -77.4074   26.1309  -77.5919 H         1 UNK         0.3020 
    107 H107      -77.3276   28.8815  -75.4228 H         1 UNK         0.1245 
    108 H108      -79.9516   28.6203  -75.6421 H         1 UNK         0.0781 
    109 H109      -79.6682   28.3894  -77.3391 H         1 UNK         0.0781 
    110 H110      -80.7342   30.9295  -74.8278 H         1 UNK         0.0836 
    111 H111      -79.7279   32.3414  -75.0282 H         1 UNK         0.0836 
    112 H112      -78.9276   26.5243  -75.4267 H         1 UNK         0.3022 
    113 H113      -76.4715   24.2093  -74.5983 H         1 UNK         0.0747 
    114 H114      -77.4254   23.8360  -72.3826 H         1 UNK         0.0793 
    115 H115      -76.5467   25.3546  -72.3400 H         1 UNK         0.0793 
    116 H116      -78.3031   25.3620  -72.4397 H         1 UNK         0.0793 
    117 H117      -79.2520   23.9963  -74.2084 H         1 UNK         0.3047 
    118 H118      -80.5242   23.8097  -77.2586 H         1 UNK         0.0822 
    119 H119      -80.6305   21.3283  -77.5350 H         1 UNK         0.0807 
    120 H120      -79.1965   21.1393  -76.5265 H         1 UNK         0.0807 
    121 H121      -79.0834   21.9485  -78.0843 H         1 UNK         0.0807 
    122 H122      -80.4469   22.6397  -74.5221 H         1 UNK         0.2946 
    123 H123      -83.9612   23.1996  -74.1417 H         1 UNK         0.1144 
    124 H124      -81.8980   21.0427  -73.4234 H         1 UNK         0.0793 
    125 H125      -83.3468   20.7869  -74.3857 H         1 UNK         0.0793 
    126 H126      -83.4909   21.2519  -72.6997 H         1 UNK         0.0793 
    127 H127      -81.7999   23.2311  -72.2382 H         1 UNK         0.2896 
@<TRIPOS>BOND
     1    1    2 1    
     2    1   67 1    
     3    1   68 1    
     4    1   69 1    
     5    2    3 2    
     6    2    4 am   BACKBONE|DICT|INTERRES
     7    4    5 1    
     8    4   70 1    
     9    5    6 1    
    10    5   65 1    
    11    5   71 1    
    12    6    7 1    
    13    6   72 1    
    14    6   73 1    
    15    7    8 1    
    16    8    9 1    
    17    8   74 1    
    18    8   75 1    
    19    9   10 ar   
    20    9   14 ar   
    21   10   11 ar   
    22   10   76 1    
    23   11   12 ar   
    24   11   48 1    
    25   12   13 ar   
    26   12   77 1    
    27   13   14 ar   
    28   13   15 1    
    29   14   78 1    
    30   15   16 1    
    31   15   79 1    
    32   15   80 1    
    33   16   17 1    
    34   17   18 1    
    35   17   81 1    
    36   17   82 1    
    37   18   19 1    
    38   18   22 1    
    39   18   83 1    
    40   19   20 am   BACKBONE|DICT|INTERRES
    41   19   21 2    
    42   20   84 1    
    43   20   85 1    
    44   22   23 am   BACKBONE|DICT|INTERRES
    45   22   86 1    
    46   23   24 2    
    47   23   25 1    
    48   25   26 1    
    49   25   27 1    
    50   25   87 1    
    51   26   88 1    
    52   26   89 1    
    53   26   90 1    
    54   27   28 am   BACKBONE|DICT|INTERRES
    55   27   91 1    
    56   28   29 2    
    57   28   30 1    
    58   30   31 1    
    59   30   32 1    
    60   30   92 1    
    61   31   93 1    
    62   31   94 1    
    63   31   95 1    
    64   32   33 am   BACKBONE|DICT|INTERRES
    65   32   96 1    
    66   33   34 2    
    67   33   35 1    
    68   35   36 1    
    69   35   37 1    
    70   35   97 1    
    71   36   98 1    
    72   36   99 1    
    73   36  100 1    
    74   37   38 am   BACKBONE|DICT|INTERRES
    75   37  101 1    
    76   38   39 2    
    77   38   40 1    
    78   40   41 1    
    79   40   42 1    
    80   40  102 1    
    81   41  103 1    
    82   41  104 1    
    83   41  105 1    
    84   42   43 am   BACKBONE|DICT|INTERRES
    85   42  106 1    
    86   43   44 2    
    87   43   45 1    
    88   45   46 1    
    89   45   49 1    
    90   45  107 1    
    91   46   47 1    
    92   46  108 1    
    93   46  109 1    
    94   47   48 1    
    95   48  110 1    
    96   48  111 1    
    97   49   50 am   BACKBONE|DICT|INTERRES
    98   49  112 1    
    99   50   51 2    
   100   50   52 1    
   101   52   53 1    
   102   52   54 1    
   103   52  113 1    
   104   53  114 1    
   105   53  115 1    
   106   53  116 1    
   107   54   55 am   BACKBONE|DICT|INTERRES
   108   54  117 1    
   109   55   56 2    
   110   55   57 1    
   111   57   58 1    
   112   57   59 1    
   113   57  118 1    
   114   58  119 1    
   115   58  120 1    
   116   58  121 1    
   117   59   60 am   BACKBONE|DICT|INTERRES
   118   59  122 1    
   119   60   61 2    
   120   60   62 1    
   121   62   63 1    
   122   62   64 1    
   123   62  123 1    
   124   63  124 1    
   125   63  125 1    
   126   63  126 1    
   127   64   65 am   BACKBONE|DICT|INTERRES
   128   64  127 1    
   129   65   66 2    
@<TRIPOS>SUBSTRUCTURE
     1 UNK         1 GROUP             0       ****    0 ROOT    
