@<TRIPOS>MOLECULE
3R135
127   129    1
SMALL
USER_CHARGES


@<TRIPOS>ATOM
      1 CA        -84.4827   28.1286  -77.1892 C.3       0 UNK        -0.1998 
      2 C         -83.1217   27.5844  -76.7845 C.2       0 UNK         0.4909 
      3 O         -82.9941   26.3862  -76.5258 O.2       0 UNK        -0.5240 
      4 N         -82.0943   28.4474  -76.7550 N.am      1 UNK        -0.4739 
      5 CA        -80.7022   28.1849  -76.3446 C.3       1 UNK         0.0864 
      6 C6        -80.6167   27.6560  -74.8839 C.3       11 UNK        -0.0881 
      7 S7        -78.9511   27.7795  -74.1522 S.3       11 UNK        -0.2682 
      8 C8        -79.3019   28.3880  -72.4783 C.3       11 UNK         0.0289 
      9 C9        -78.1022   28.1448  -71.5776 C.ar      11 UNK        -0.0687 
     10 C10       -78.0092   26.9555  -70.8490 C.ar      11 UNK        -0.0823 
     11 C11       -76.8874   26.6929  -70.0571 C.ar      11 UNK        -0.0830 
     12 C12       -75.8734   27.6508  -69.9659 C.ar      11 UNK        -0.1021 
     13 C13       -75.9377   28.8271  -70.7193 C.ar      11 UNK        -0.0753 
     14 C14       -77.0615   29.0765  -71.5137 C.ar      11 UNK        -0.0933 
     15 C15       -74.7548   29.7829  -70.7320 C.3       11 UNK         0.0166 
     16 S16       -73.3423   28.9995  -71.5688 S.3       11 UNK        -0.2615 
     17 C17       -72.1528   30.3758  -71.7336 C.3       11 UNK        -0.0865 
     18 CA        -71.9691   30.8464  -73.2086 C.3       10 UNK         0.0862 
     19 C         -70.9570   32.0233  -73.3411 C.2       10 UNK         0.5551 
     20 N         -70.1755   32.1055  -74.4113 N.am      10 UNK        -0.7319 
     21 O         -70.8972   32.8935  -72.4754 O.2       10 UNK        -0.5018 
     22 N         -71.7528   29.7377  -74.1562 N.am      10 UNK        -0.4509 
     23 C         -70.7599   28.8365  -74.1225 C.2       10 UNK         0.4899 
     24 O         -69.8213   28.8789  -73.3264 O.2       10 UNK        -0.4839 
     25 CA        -70.8255   27.6686  -75.1258 C.3       9 UNK         0.0222 
     26 CB        -71.2074   26.3678  -74.3991 C.3       9 UNK        -0.1966 
     27 N         -71.7767   27.9026  -76.2153 N.am      9 UNK        -0.4218 
     28 C         -71.5206   28.6674  -77.2880 C.2       9 UNK         0.5020 
     29 O         -70.4248   29.1851  -77.5087 O.2       9 UNK        -0.5274 
     30 CA        -72.6778   28.9275  -78.2732 C.3       8 UNK         0.0270 
     31 CB        -72.6097   27.9443  -79.4531 C.3       8 UNK        -0.1976 
     32 N         -74.0075   28.8533  -77.6620 N.am      8 UNK        -0.4313 
     33 C         -74.4463   29.6287  -76.6608 C.2       8 UNK         0.5041 
     34 O         -73.7961   30.5579  -76.1822 O.2       8 UNK        -0.5577 
     35 CA        -75.8137   29.2800  -76.0504 C.3       7 UNK         0.0284 
     36 CB        -76.9039   30.2131  -76.5999 C.3       7 UNK        -0.1958 
     37 N         -76.2314   27.8841  -76.2320 N.am      7 UNK        -0.4454 
     38 C         -75.5788   26.8089  -75.7733 C.2       7 UNK         0.5089 
     39 O         -74.4528   26.8657  -75.2757 O.2       7 UNK        -0.5125 
     40 CA        -76.3017   25.4577  -75.9348 C.3       6 UNK         0.0408 
     41 CB        -75.7565   24.6581  -77.1327 C.3       6 UNK        -0.1791 
     42 N         -76.2962   24.6826  -74.6901 N.am      6 UNK        -0.4762 
     43 C         -75.2628   24.0913  -74.0665 C.2       6 UNK         0.5007 
     44 O         -74.1499   23.9131  -74.5629 O.2       6 UNK        -0.5032 
     45 CA        -75.5063   23.6454  -72.6084 C.3       5 UNK         0.0783 
     46 C46       -75.0203   24.7673  -71.6585 C.3       11 UNK        -0.0857 
     47 S47       -75.2381   24.4110  -69.8738 S.3       11 UNK        -0.2512 
     48 C48       -76.7372   25.3413  -69.3690 C.3       11 UNK         0.0225 
     49 N         -76.9038   23.2806  -72.3586 N.am      5 UNK        -0.4615 
     50 C         -77.5142   22.1991  -72.8568 C.2       4 UNK         0.5053 
     51 O         -76.9551   21.3653  -73.5704 O.2       4 UNK        -0.5105 
     52 CA        -78.9992   21.9989  -72.5013 C.3       4 UNK         0.0263 
     53 CB        -79.5217   22.9328  -71.3841 C.3       4 UNK        -0.1981 
     54 N         -79.8549   22.0884  -73.6889 N.am      4 UNK        -0.4224 
     55 C         -79.9825   23.1362  -74.5165 C.2       3 UNK         0.4895 
     56 O         -79.3676   24.1986  -74.3915 O.2       3 UNK        -0.5091 
     57 CA        -81.0230   22.9665  -75.6368 C.3       3 UNK         0.0250 
     58 CB        -82.4478   23.0632  -75.0635 C.3       3 UNK        -0.1996 
     59 N         -80.8826   23.9839  -76.6758 N.am      3 UNK        -0.4254 
     60 C         -79.9765   23.9683  -77.6650 C.2       2 UNK         0.5004 
     61 O         -79.1783   23.0492  -77.8491 O.2       2 UNK        -0.5226 
     62 CA        -79.9683   25.1754  -78.6219 C.3       2 UNK         0.0269 
     63 CB        -80.7392   24.8472  -79.9106 C.3       2 UNK        -0.1926 
     64 N         -80.5807   26.3402  -77.9832 N.am      2 UNK        -0.4687 
     65 C         -79.9064   27.2864  -77.3244 C.2       1 UNK         0.5165 
     66 O         -78.6956   27.4611  -77.4598 O.2       1 UNK        -0.5079 
     67 H67       -84.4495   29.1976  -77.3986 H         1 UNK         0.0900 
     68 H68       -85.2041   27.9616  -76.3899 H         1 UNK         0.0900 
     69 H69       -84.8399   27.6178  -78.0829 H         1 UNK         0.0900 
     70 H70       -82.2720   29.4055  -77.0256 H         1 UNK         0.2959 
     71 H71       -80.2122   29.1596  -76.3707 H         1 UNK         0.1079 
     72 H72       -80.9377   26.6144  -74.8225 H         1 UNK         0.0837 
     73 H73       -81.3088   28.2182  -74.2553 H         1 UNK         0.0837 
     74 H74       -79.5449   29.4509  -72.5175 H         1 UNK         0.0685 
     75 H75       -80.1793   27.8781  -72.0770 H         1 UNK         0.0685 
     76 H76       -78.7987   26.2216  -70.9310 H         1 UNK         0.1434 
     77 H77       -74.9929   27.4433  -69.3729 H         1 UNK         0.1329 
     78 H78       -77.1130   29.9767  -72.1107 H         1 UNK         0.1335 
     79 H79       -75.0117   30.7116  -71.2440 H         1 UNK         0.0680 
     80 H80       -74.4781   30.0466  -69.7102 H         1 UNK         0.0680 
     81 H81       -71.1981   30.0476  -71.3196 H         1 UNK         0.1032 
     82 H82       -72.4774   31.2074  -71.1056 H         1 UNK         0.1032 
     83 H83       -72.9221   31.2792  -73.5149 H         1 UNK         0.0461 
     84 H84       -69.5294   32.8740  -74.4976 H         1 UNK         0.3453 
     85 H85       -70.2271   31.4008  -75.1302 H         1 UNK         0.3453 
     86 H86       -72.4514   29.6704  -74.8873 H         1 UNK         0.2984 
     87 H87       -69.8278   27.5384  -75.5502 H         1 UNK         0.0554 
     88 H88       -71.2573   25.5237  -75.0871 H         1 UNK         0.0847 
     89 H89       -72.1760   26.4516  -73.9038 H         1 UNK         0.0847 
     90 H90       -70.4730   26.1190  -73.6320 H         1 UNK         0.0847 
     91 H91       -72.7138   27.5319  -76.0786 H         1 UNK         0.3141 
     92 H92       -72.5520   29.9405  -78.6612 H         1 UNK         0.0743 
     93 H93       -71.6382   27.9950  -79.9472 H         1 UNK         0.0784 
     94 H94       -72.7566   26.9132  -79.1288 H         1 UNK         0.0784 
     95 H95       -73.3650   28.1723  -80.2055 H         1 UNK         0.0784 
     96 H96       -74.6174   28.1149  -77.9813 H         1 UNK         0.3213 
     97 H97       -75.7319   29.4499  -74.9744 H         1 UNK         0.0855 
     98 H98       -76.6221   31.2601  -76.4795 H         1 UNK         0.0814 
     99 H99       -77.8465   30.0712  -76.0718 H         1 UNK         0.0814 
    100 H100      -77.0840   30.0409  -77.6618 H         1 UNK         0.0814 
    101 H101      -77.1500   27.7420  -76.6545 H         1 UNK         0.3105 
    102 H102      -77.3563   25.6557  -76.1277 H         1 UNK         0.0547 
    103 H103      -75.9253   25.1985  -78.0646 H         1 UNK         0.0837 
    104 H104      -74.6838   24.4799  -77.0535 H         1 UNK         0.0837 
    105 H105      -76.2550   23.6929  -77.2233 H         1 UNK         0.0837 
    106 H106      -77.1794   24.7060  -74.1924 H         1 UNK         0.3020 
    107 H107      -74.8944   22.7573  -72.4342 H         1 UNK         0.1245 
    108 H108      -75.4866   25.7143  -71.9281 H         1 UNK         0.0781 
    109 H109      -73.9517   24.9333  -71.8106 H         1 UNK         0.0781 
    110 H110      -76.7056   25.4958  -68.2897 H         1 UNK         0.0836 
    111 H111      -77.6107   24.7163  -69.5558 H         1 UNK         0.0836 
    112 H112      -77.4352   23.9168  -71.7854 H         1 UNK         0.3022 
    113 H113      -79.0847   20.9746  -72.1353 H         1 UNK         0.0747 
    114 H114      -80.5510   22.6859  -71.1235 H         1 UNK         0.0793 
    115 H115      -78.9319   22.8255  -70.4730 H         1 UNK         0.0793 
    116 H116      -79.5052   23.9828  -71.6771 H         1 UNK         0.0793 
    117 H117      -80.3866   21.2545  -73.8970 H         1 UNK         0.3047 
    118 H118      -80.8879   21.9817  -76.0895 H         1 UNK         0.0822 
    119 H119      -83.1983   22.9313  -75.8432 H         1 UNK         0.0807 
    120 H120      -82.6254   24.0311  -74.5917 H         1 UNK         0.0807 
    121 H121      -82.6286   22.2951  -74.3106 H         1 UNK         0.0807 
    122 H122      -81.4826   24.7935  -76.5810 H         1 UNK         0.2946 
    123 H123      -78.9281   25.3858  -78.8820 H         1 UNK         0.1144 
    124 H124      -80.7122   25.6826  -80.6105 H         1 UNK         0.0793 
    125 H125      -81.7850   24.6124  -79.7083 H         1 UNK         0.0793 
    126 H126      -80.3023   23.9856  -80.4174 H         1 UNK         0.0793 
    127 H127      -81.5766   26.2866  -77.7932 H         1 UNK         0.2896 
@<TRIPOS>BOND
     1    1    2 1    
     2    1   67 1    
     3    1   68 1    
     4    1   69 1    
     5    2    3 2    
     6    2    4 am   BACKBONE|DICT|INTERRES
     7    4    5 1    
     8    4   70 1    
     9    5    6 1    
    10    5   65 1    
    11    5   71 1    
    12    6    7 1    
    13    6   72 1    
    14    6   73 1    
    15    7    8 1    
    16    8    9 1    
    17    8   74 1    
    18    8   75 1    
    19    9   10 ar   
    20    9   14 ar   
    21   10   11 ar   
    22   10   76 1    
    23   11   12 ar   
    24   11   48 1    
    25   12   13 ar   
    26   12   77 1    
    27   13   14 ar   
    28   13   15 1    
    29   14   78 1    
    30   15   16 1    
    31   15   79 1    
    32   15   80 1    
    33   16   17 1    
    34   17   18 1    
    35   17   81 1    
    36   17   82 1    
    37   18   19 1    
    38   18   22 1    
    39   18   83 1    
    40   19   20 am   BACKBONE|DICT|INTERRES
    41   19   21 2    
    42   20   84 1    
    43   20   85 1    
    44   22   23 am   BACKBONE|DICT|INTERRES
    45   22   86 1    
    46   23   24 2    
    47   23   25 1    
    48   25   26 1    
    49   25   27 1    
    50   25   87 1    
    51   26   88 1    
    52   26   89 1    
    53   26   90 1    
    54   27   28 am   BACKBONE|DICT|INTERRES
    55   27   91 1    
    56   28   29 2    
    57   28   30 1    
    58   30   31 1    
    59   30   32 1    
    60   30   92 1    
    61   31   93 1    
    62   31   94 1    
    63   31   95 1    
    64   32   33 am   BACKBONE|DICT|INTERRES
    65   32   96 1    
    66   33   34 2    
    67   33   35 1    
    68   35   36 1    
    69   35   37 1    
    70   35   97 1    
    71   36   98 1    
    72   36   99 1    
    73   36  100 1    
    74   37   38 am   BACKBONE|DICT|INTERRES
    75   37  101 1    
    76   38   39 2    
    77   38   40 1    
    78   40   41 1    
    79   40   42 1    
    80   40  102 1    
    81   41  103 1    
    82   41  104 1    
    83   41  105 1    
    84   42   43 am   BACKBONE|DICT|INTERRES
    85   42  106 1    
    86   43   44 2    
    87   43   45 1    
    88   45   46 1    
    89   45   49 1    
    90   45  107 1    
    91   46   47 1    
    92   46  108 1    
    93   46  109 1    
    94   47   48 1    
    95   48  110 1    
    96   48  111 1    
    97   49   50 am   BACKBONE|DICT|INTERRES
    98   49  112 1    
    99   50   51 2    
   100   50   52 1    
   101   52   53 1    
   102   52   54 1    
   103   52  113 1    
   104   53  114 1    
   105   53  115 1    
   106   53  116 1    
   107   54   55 am   BACKBONE|DICT|INTERRES
   108   54  117 1    
   109   55   56 2    
   110   55   57 1    
   111   57   58 1    
   112   57   59 1    
   113   57  118 1    
   114   58  119 1    
   115   58  120 1    
   116   58  121 1    
   117   59   60 am   BACKBONE|DICT|INTERRES
   118   59  122 1    
   119   60   61 2    
   120   60   62 1    
   121   62   63 1    
   122   62   64 1    
   123   62  123 1    
   124   63  124 1    
   125   63  125 1    
   126   63  126 1    
   127   64   65 am   BACKBONE|DICT|INTERRES
   128   64  127 1    
   129   65   66 2    
@<TRIPOS>SUBSTRUCTURE
     1 UNK         1 GROUP             0       ****    0 ROOT    
