@<TRIPOS>MOLECULE
3R135
127   129    1
SMALL
USER_CHARGES


@<TRIPOS>ATOM
      1 CA        -78.0016   21.8487  -70.3604 C.3       0 UNK        -0.1998 
      2 C         -79.1781   22.2891  -71.2183 C.2       0 UNK         0.4909 
      3 O         -80.1211   21.5206  -71.4078 O.2       0 UNK        -0.5240 
      4 N         -79.1270   23.5214  -71.7408 N.am      1 UNK        -0.4739 
      5 CA        -80.1645   24.1142  -72.5973 C.3       1 UNK         0.0864 
      6 C6        -80.0536   25.6589  -72.6389 C.3       11 UNK        -0.0881 
      7 S7        -80.6137   26.4068  -71.0734 S.3       11 UNK        -0.2682 
      8 C8        -79.0447   26.7588  -70.2125 C.3       11 UNK         0.0289 
      9 C9        -78.2556   27.9205  -70.8088 C.ar      11 UNK        -0.0687 
     10 C10       -78.8889   29.1199  -71.1529 C.ar      11 UNK        -0.0823 
     11 C11       -78.1520   30.1986  -71.6489 C.ar      11 UNK        -0.0830 
     12 C12       -76.7641   30.0840  -71.7753 C.ar      11 UNK        -0.1021 
     13 C13       -76.1176   28.8923  -71.4356 C.ar      11 UNK        -0.0753 
     14 C14       -76.8693   27.8133  -70.9600 C.ar      11 UNK        -0.0933 
     15 C15       -74.6053   28.7775  -71.5536 C.3       11 UNK         0.0166 
     16 S16       -74.0792   28.6403  -73.2880 S.3       11 UNK        -0.2615 
     17 C17       -73.3388   30.2873  -73.5756 C.3       11 UNK        -0.0865 
     18 CA        -72.6486   30.4188  -74.9612 C.3       10 UNK         0.0862 
     19 C         -72.0292   31.8331  -75.1547 C.2       10 UNK         0.5551 
     20 N         -70.7363   31.9622  -75.4268 N.am      10 UNK        -0.7319 
     21 O         -72.7362   32.8330  -75.0586 O.2       10 UNK        -0.5018 
     22 N         -71.7249   29.3020  -75.2076 N.am      10 UNK        -0.4509 
     23 C         -71.3795   28.8119  -76.4016 C.2       10 UNK         0.4899 
     24 O         -71.7127   29.3176  -77.4728 O.2       10 UNK        -0.4839 
     25 CA        -70.5650   27.5037  -76.4110 C.3       9 UNK         0.0222 
     26 CB        -69.0497   27.7854  -76.3975 C.3       9 UNK        -0.1966 
     27 N         -70.9623   26.5438  -75.3656 N.am      9 UNK        -0.4218 
     28 C         -70.7992   26.6291  -74.0355 C.2       9 UNK         0.5020 
     29 O         -70.2196   27.5602  -73.4742 O.2       9 UNK        -0.5274 
     30 CA        -71.4879   25.5395  -73.2021 C.3       8 UNK         0.0270 
     31 CB        -71.3861   25.7836  -71.6840 C.3       8 UNK        -0.1976 
     32 N         -72.8959   25.4938  -73.5882 N.am      8 UNK        -0.4313 
     33 C         -73.5744   24.3972  -73.9391 C.2       8 UNK         0.5041 
     34 O         -73.1099   23.2574  -73.9009 O.2       8 UNK        -0.5577 
     35 CA        -75.0152   24.6076  -74.4362 C.3       7 UNK         0.0284 
     36 CB        -76.0108   24.4664  -73.2745 C.3       7 UNK        -0.1958 
     37 N         -75.2468   25.8940  -75.1001 N.am      7 UNK        -0.4454 
     38 C         -74.6659   26.3094  -76.2365 C.2       7 UNK         0.5089 
     39 O         -73.7792   25.6809  -76.8160 O.2       7 UNK        -0.5125 
     40 CA        -75.1504   27.6477  -76.8240 C.3       6 UNK         0.0408 
     41 CB        -75.3966   27.5526  -78.3404 C.3       6 UNK        -0.1791 
     42 N         -76.3682   28.1172  -76.1622 N.am      6 UNK        -0.4762 
     43 C         -76.6861   29.3882  -75.8924 C.2       6 UNK         0.5007 
     44 O         -75.9930   30.3499  -76.2259 O.2       6 UNK        -0.5032 
     45 CA        -78.0286   29.6122  -75.1577 C.3       5 UNK         0.0783 
     46 C46       -78.2500   31.1002  -74.7789 C.3       11 UNK        -0.0857 
     47 S47       -79.6806   31.3236  -73.6697 S.3       11 UNK        -0.2512 
     48 C48       -78.8609   31.4844  -72.0494 C.3       11 UNK         0.0225 
     49 N         -79.1471   29.0792  -75.9458 N.am      5 UNK        -0.4615 
     50 C         -79.4465   27.7833  -76.0945 C.2       4 UNK         0.5053 
     51 O         -78.8489   26.8862  -75.4953 O.2       4 UNK        -0.5105 
     52 CA        -80.5402   27.4236  -77.1137 C.3       4 UNK         0.0263 
     53 CB        -80.6599   28.4600  -78.2583 C.3       4 UNK        -0.1981 
     54 N         -80.2381   26.0951  -77.6443 N.am      4 UNK        -0.4224 
     55 C         -81.0284   25.3332  -78.4067 C.2       3 UNK         0.4895 
     56 O         -82.1649   25.6552  -78.7556 O.2       3 UNK        -0.5091 
     57 CA        -80.4657   23.9747  -78.8628 C.3       3 UNK         0.0250 
     58 CB        -79.3510   24.1447  -79.9158 C.3       3 UNK        -0.1996 
     59 N         -80.0536   23.1044  -77.7534 N.am      3 UNK        -0.4254 
     60 C         -79.0335   23.2637  -76.8989 C.2       2 UNK         0.5004 
     61 O         -78.2047   24.1740  -76.9629 O.2       2 UNK        -0.5226 
     62 CA        -78.9415   22.2360  -75.7587 C.3       2 UNK         0.0269 
     63 CB        -77.6084   21.4718  -75.8059 C.3       2 UNK        -0.1926 
     64 N         -79.0915   22.8719  -74.4484 N.am      2 UNK        -0.4687 
     65 C         -80.1903   23.5137  -74.0206 C.2       1 UNK         0.5165 
     66 O         -81.2188   23.6173  -74.6912 O.2       1 UNK        -0.5079 
     67 H67       -77.5347   20.9630  -70.7905 H         1 UNK         0.0900 
     68 H68       -78.3430   21.6002  -69.3559 H         1 UNK         0.0900 
     69 H69       -77.2421   22.6259  -70.2773 H         1 UNK         0.0900 
     70 H70       -78.3370   24.1138  -71.5353 H         1 UNK         0.2959 
     71 H71       -81.1348   23.8604  -72.1631 H         1 UNK         0.1079 
     72 H72       -79.0382   25.9814  -72.8756 H         1 UNK         0.0837 
     73 H73       -80.6875   26.0736  -73.4257 H         1 UNK         0.0837 
     74 H74       -79.2724   27.0023  -69.1740 H         1 UNK         0.0685 
     75 H75       -78.4421   25.8505  -70.1857 H         1 UNK         0.0685 
     76 H76       -79.9600   29.2155  -71.0380 H         1 UNK         0.1434 
     77 H77       -76.1851   30.9189  -72.1444 H         1 UNK         0.1329 
     78 H78       -76.3690   26.8960  -70.6817 H         1 UNK         0.1335 
     79 H79       -74.2466   27.8987  -71.0155 H         1 UNK         0.0680 
     80 H80       -74.1334   29.6365  -71.0748 H         1 UNK         0.0680 
     81 H81       -72.6183   30.4863  -72.7799 H         1 UNK         0.1032 
     82 H82       -74.1252   31.0374  -73.4755 H         1 UNK         0.1032 
     83 H83       -73.4325   30.3505  -75.7152 H         1 UNK         0.0461 
     84 H84       -70.3442   32.8820  -75.5529 H         1 UNK         0.3453 
     85 H85       -70.1532   31.1452  -75.5110 H         1 UNK         0.3453 
     86 H86       -71.3482   28.8394  -74.3861 H         1 UNK         0.2984 
     87 H87       -70.7939   27.0067  -77.3552 H         1 UNK         0.0554 
     88 H88       -68.4740   26.8617  -76.4536 H         1 UNK         0.0847 
     89 H89       -68.7377   28.3214  -75.5009 H         1 UNK         0.0847 
     90 H90       -68.7630   28.3979  -77.2533 H         1 UNK         0.0847 
     91 H91       -71.5227   25.7716  -75.7050 H         1 UNK         0.3141 
     92 H92       -70.9902   24.5963  -73.4371 H         1 UNK         0.0743 
     93 H93       -71.8755   24.9876  -71.1227 H         1 UNK         0.0784 
     94 H94       -70.3445   25.8150  -71.3618 H         1 UNK         0.0784 
     95 H95       -71.8478   26.7290  -71.3959 H         1 UNK         0.0784 
     96 H96       -73.3629   26.3898  -73.6643 H         1 UNK         0.3213 
     97 H97       -75.2223   23.8272  -75.1702 H         1 UNK         0.0855 
     98 H98       -75.8218   25.2022  -72.4920 H         1 UNK         0.0814 
     99 H99       -75.9414   23.4772  -72.8197 H         1 UNK         0.0814 
    100 H100      -77.0344   24.6017  -73.6208 H         1 UNK         0.0814 
    101 H101      -75.9260   26.5042  -74.6707 H         1 UNK         0.3105 
    102 H102      -74.3485   28.3647  -76.6477 H         1 UNK         0.0547 
    103 H103      -74.4915   27.2480  -78.8673 H         1 UNK         0.0837 
    104 H104      -76.1746   26.8249  -78.5744 H         1 UNK         0.0837 
    105 H105      -75.6997   28.5145  -78.7537 H         1 UNK         0.0837 
    106 H106      -77.0598   27.4081  -75.9275 H         1 UNK         0.3020 
    107 H107      -77.9637   29.0392  -74.2297 H         1 UNK         0.1245 
    108 H108      -78.4102   31.7033  -75.6743 H         1 UNK         0.0781 
    109 H109      -77.3648   31.5169  -74.2949 H         1 UNK         0.0781 
    110 H110      -79.6103   31.7362  -71.2975 H         1 UNK         0.0836 
    111 H111      -78.1630   32.3229  -72.0738 H         1 UNK         0.0836 
    112 H112      -79.6691   29.7580  -76.4796 H         1 UNK         0.3022 
    113 H113      -81.4867   27.3702  -76.5728 H         1 UNK         0.0747 
    114 H114      -81.4068   28.1673  -78.9956 H         1 UNK         0.0793 
    115 H115      -80.9706   29.4365  -77.8855 H         1 UNK         0.0793 
    116 H116      -79.7128   28.5880  -78.7844 H         1 UNK         0.0793 
    117 H117      -79.3566   25.6952  -77.3233 H         1 UNK         0.3047 
    118 H118      -81.2874   23.4487  -79.3521 H         1 UNK         0.0822 
    119 H119      -79.7156   24.7064  -80.7767 H         1 UNK         0.0807 
    120 H120      -79.0031   23.1792  -80.2829 H         1 UNK         0.0807 
    121 H121      -78.4882   24.6838  -79.5236 H         1 UNK         0.0807 
    122 H122      -80.6889   22.3392  -77.5725 H         1 UNK         0.2946 
    123 H123      -79.7500   21.5095  -75.8672 H         1 UNK         0.1144 
    124 H124      -77.4828   20.9682  -76.7654 H         1 UNK         0.0793 
    125 H125      -77.5596   20.7072  -75.0304 H         1 UNK         0.0793 
    126 H126      -76.7557   22.1376  -75.6757 H         1 UNK         0.0793 
    127 H127      -78.2975   22.8279  -73.8291 H         1 UNK         0.2896 
@<TRIPOS>BOND
     1    1    2 1    
     2    1   67 1    
     3    1   68 1    
     4    1   69 1    
     5    2    3 2    
     6    2    4 am   BACKBONE|DICT|INTERRES
     7    4    5 1    
     8    4   70 1    
     9    5    6 1    
    10    5   65 1    
    11    5   71 1    
    12    6    7 1    
    13    6   72 1    
    14    6   73 1    
    15    7    8 1    
    16    8    9 1    
    17    8   74 1    
    18    8   75 1    
    19    9   10 ar   
    20    9   14 ar   
    21   10   11 ar   
    22   10   76 1    
    23   11   12 ar   
    24   11   48 1    
    25   12   13 ar   
    26   12   77 1    
    27   13   14 ar   
    28   13   15 1    
    29   14   78 1    
    30   15   16 1    
    31   15   79 1    
    32   15   80 1    
    33   16   17 1    
    34   17   18 1    
    35   17   81 1    
    36   17   82 1    
    37   18   19 1    
    38   18   22 1    
    39   18   83 1    
    40   19   20 am   BACKBONE|DICT|INTERRES
    41   19   21 2    
    42   20   84 1    
    43   20   85 1    
    44   22   23 am   BACKBONE|DICT|INTERRES
    45   22   86 1    
    46   23   24 2    
    47   23   25 1    
    48   25   26 1    
    49   25   27 1    
    50   25   87 1    
    51   26   88 1    
    52   26   89 1    
    53   26   90 1    
    54   27   28 am   BACKBONE|DICT|INTERRES
    55   27   91 1    
    56   28   29 2    
    57   28   30 1    
    58   30   31 1    
    59   30   32 1    
    60   30   92 1    
    61   31   93 1    
    62   31   94 1    
    63   31   95 1    
    64   32   33 am   BACKBONE|DICT|INTERRES
    65   32   96 1    
    66   33   34 2    
    67   33   35 1    
    68   35   36 1    
    69   35   37 1    
    70   35   97 1    
    71   36   98 1    
    72   36   99 1    
    73   36  100 1    
    74   37   38 am   BACKBONE|DICT|INTERRES
    75   37  101 1    
    76   38   39 2    
    77   38   40 1    
    78   40   41 1    
    79   40   42 1    
    80   40  102 1    
    81   41  103 1    
    82   41  104 1    
    83   41  105 1    
    84   42   43 am   BACKBONE|DICT|INTERRES
    85   42  106 1    
    86   43   44 2    
    87   43   45 1    
    88   45   46 1    
    89   45   49 1    
    90   45  107 1    
    91   46   47 1    
    92   46  108 1    
    93   46  109 1    
    94   47   48 1    
    95   48  110 1    
    96   48  111 1    
    97   49   50 am   BACKBONE|DICT|INTERRES
    98   49  112 1    
    99   50   51 2    
   100   50   52 1    
   101   52   53 1    
   102   52   54 1    
   103   52  113 1    
   104   53  114 1    
   105   53  115 1    
   106   53  116 1    
   107   54   55 am   BACKBONE|DICT|INTERRES
   108   54  117 1    
   109   55   56 2    
   110   55   57 1    
   111   57   58 1    
   112   57   59 1    
   113   57  118 1    
   114   58  119 1    
   115   58  120 1    
   116   58  121 1    
   117   59   60 am   BACKBONE|DICT|INTERRES
   118   59  122 1    
   119   60   61 2    
   120   60   62 1    
   121   62   63 1    
   122   62   64 1    
   123   62  123 1    
   124   63  124 1    
   125   63  125 1    
   126   63  126 1    
   127   64   65 am   BACKBONE|DICT|INTERRES
   128   64  127 1    
   129   65   66 2    
@<TRIPOS>SUBSTRUCTURE
     1 UNK         1 GROUP             0       ****    0 ROOT    
