@<TRIPOS>MOLECULE
3R135
127   129    1
SMALL
USER_CHARGES


@<TRIPOS>ATOM
      1 CA        -81.1938   22.0588  -72.6642 C.3       0 UNK        -0.1998 
      2 C         -81.7244   23.3979  -73.1518 C.2       0 UNK         0.4909 
      3 O         -82.2750   23.4770  -74.2505 O.2       0 UNK        -0.5240 
      4 N         -81.5502   24.4556  -72.3500 N.am      1 UNK        -0.4739 
      5 CA        -81.9247   25.8403  -72.6581 C.3       1 UNK         0.0864 
      6 C6        -81.7508   26.7908  -71.4415 C.3       11 UNK        -0.0881 
      7 S7        -80.2562   26.4895  -70.4280 S.3       11 UNK        -0.2682 
      8 C8        -79.7441   28.1763  -69.9809 C.3       11 UNK         0.0289 
      9 C9        -78.6062   28.6708  -70.8600 C.ar      11 UNK        -0.0687 
     10 C10       -78.8570   29.4965  -71.9607 C.ar      11 UNK        -0.0823 
     11 C11       -77.7998   29.9916  -72.7337 C.ar      11 UNK        -0.0830 
     12 C12       -76.4869   29.6434  -72.3998 C.ar      11 UNK        -0.1021 
     13 C13       -76.2271   28.8055  -71.3120 C.ar      11 UNK        -0.0753 
     14 C14       -77.2895   28.3241  -70.5444 C.ar      11 UNK        -0.0933 
     15 C15       -74.7970   28.4245  -70.9732 C.3       11 UNK         0.0166 
     16 S16       -73.9328   29.7945  -70.1465 S.3       11 UNK        -0.2615 
     17 C17       -72.1925   29.3533  -70.4726 C.3       11 UNK        -0.0865 
     18 CA        -71.5859   30.1844  -71.6332 C.3       10 UNK         0.0862 
     19 C         -70.0598   29.9236  -71.7531 C.2       10 UNK         0.5551 
     20 N         -69.2421   30.7060  -71.0627 N.am      10 UNK        -0.7319 
     21 O         -69.6168   28.9957  -72.4279 O.2       10 UNK        -0.5018 
     22 N         -72.2865   29.9298  -72.8989 N.am      10 UNK        -0.4509 
     23 C         -72.1777   30.6648  -74.0093 C.2       10 UNK         0.4899 
     24 O         -71.5422   31.7183  -74.0770 O.2       10 UNK        -0.4839 
     25 CA        -72.8822   30.0988  -75.2572 C.3       9 UNK         0.0222 
     26 CB        -72.8614   31.0731  -76.4492 C.3       9 UNK        -0.1966 
     27 N         -72.2824   28.8256  -75.6674 N.am      9 UNK        -0.4218 
     28 C         -72.5348   27.6436  -75.0922 C.2       9 UNK         0.5020 
     29 O         -73.3105   27.4999  -74.1466 O.2       9 UNK        -0.5274 
     30 CA        -71.7742   26.4294  -75.6291 C.3       8 UNK         0.0270 
     31 CB        -70.8868   25.8044  -74.5355 C.3       8 UNK        -0.1976 
     32 N         -72.7387   25.4532  -76.1286 N.am      8 UNK        -0.4313 
     33 C         -72.4660   24.5114  -77.0403 C.2       8 UNK         0.5041 
     34 O         -71.3439   24.3202  -77.5128 O.2       8 UNK        -0.5577 
     35 CA        -73.6407   23.6524  -77.5382 C.3       7 UNK         0.0284 
     36 CB        -74.0144   22.5670  -76.5151 C.3       7 UNK        -0.1958 
     37 N         -74.8153   24.4605  -77.8726 N.am      7 UNK        -0.4454 
     38 C         -74.8896   25.2808  -78.9315 C.2       7 UNK         0.5089 
     39 O         -74.0010   25.3904  -79.7773 O.2       7 UNK        -0.5125 
     40 CA        -76.1663   26.1270  -79.0792 C.3       6 UNK         0.0408 
     41 CB        -77.2400   25.3503  -79.8567 C.3       6 UNK        -0.1791 
     42 N         -76.7128   26.5729  -77.7961 N.am      6 UNK        -0.4762 
     43 C         -76.1110   27.4440  -76.9720 C.2       6 UNK         0.5007 
     44 O         -75.0588   28.0197  -77.2463 O.2       6 UNK        -0.5032 
     45 CA        -76.7854   27.6876  -75.6042 C.3       5 UNK         0.0783 
     46 C46       -77.9001   28.7608  -75.7101 C.3       11 UNK        -0.0857 
     47 S47       -77.2450   30.4412  -75.4520 S.3       11 UNK        -0.2512 
     48 C48       -78.0820   30.9292  -73.9046 C.3       11 UNK         0.0225 
     49 N         -77.2865   26.4520  -74.9948 N.am      5 UNK        -0.4615 
     50 C         -76.5441   25.3783  -74.6912 C.2       4 UNK         0.5053 
     51 O         -75.3291   25.3071  -74.8620 O.2       4 UNK        -0.5105 
     52 CA        -77.3029   24.1414  -74.1892 C.3       4 UNK         0.0263 
     53 CB        -77.6627   24.2701  -72.6998 C.3       4 UNK        -0.1981 
     54 N         -78.5072   23.9088  -74.9890 N.am      4 UNK        -0.4224 
     55 C         -78.4873   23.4855  -76.2625 C.2       3 UNK         0.4895 
     56 O         -77.4610   23.1548  -76.8561 O.2       3 UNK        -0.5091 
     57 CA        -79.8265   23.4706  -77.0180 C.3       3 UNK         0.0250 
     58 CB        -80.5370   22.1191  -76.8461 C.3       3 UNK        -0.1996 
     59 N         -80.7124   24.5644  -76.6071 N.am      3 UNK        -0.4254 
     60 C         -80.4946   25.8509  -76.9242 C.2       2 UNK         0.5004 
     61 O         -79.5589   26.2257  -77.6281 O.2       2 UNK        -0.5226 
     62 CA        -81.4406   26.9085  -76.3276 C.3       2 UNK         0.0269 
     63 CB        -82.6138   27.1796  -77.2820 C.3       2 UNK        -0.1926 
     64 N         -81.9591   26.5543  -75.0038 N.am      2 UNK        -0.4687 
     65 C         -81.1982   26.3453  -73.9206 C.2       1 UNK         0.5165 
     66 O         -79.9735   26.4739  -73.9195 O.2       1 UNK        -0.5079 
     67 H67       -80.8347   22.1139  -71.6367 H         1 UNK         0.0900 
     68 H68       -81.9800   21.3056  -72.7079 H         1 UNK         0.0900 
     69 H69       -80.3688   21.7288  -73.2948 H         1 UNK         0.0900 
     70 H70       -81.0617   24.3440  -71.4721 H         1 UNK         0.2959 
     71 H71       -82.9924   25.8230  -72.8884 H         1 UNK         0.1079 
     72 H72       -82.6065   26.6696  -70.7755 H         1 UNK         0.0837 
     73 H73       -81.7837   27.8341  -71.7613 H         1 UNK         0.0837 
     74 H74       -80.5932   28.8600  -70.0213 H         1 UNK         0.0685 
     75 H75       -79.4179   28.1717  -68.9397 H         1 UNK         0.0685 
     76 H76       -79.8757   29.7653  -72.2037 H         1 UNK         0.1434 
     77 H77       -75.6623   30.0263  -72.9854 H         1 UNK         0.1329 
     78 H78       -77.0933   27.6833  -69.6956 H         1 UNK         0.1335 
     79 H79       -74.7684   27.5413  -70.3332 H         1 UNK         0.0680 
     80 H80       -74.2795   28.1534  -71.8910 H         1 UNK         0.0680 
     81 H81       -71.6364   29.5307  -69.5499 H         1 UNK         0.1032 
     82 H82       -72.1061   28.2832  -70.6719 H         1 UNK         0.1032 
     83 H83       -71.7242   31.2417  -71.3970 H         1 UNK         0.0461 
     84 H84       -69.5963   31.4638  -70.4996 H         1 UNK         0.3453 
     85 H85       -68.2485   30.5431  -71.1143 H         1 UNK         0.3453 
     86 H86       -72.7695   29.0414  -72.9794 H         1 UNK         0.2984 
     87 H87       -73.9289   29.9282  -74.9946 H         1 UNK         0.0554 
     88 H88       -73.3236   32.0244  -76.1821 H         1 UNK         0.0847 
     89 H89       -73.4200   30.6711  -77.2950 H         1 UNK         0.0847 
     90 H90       -71.8457   31.2853  -76.7850 H         1 UNK         0.0847 
     91 H91       -71.6103   28.8678  -76.4199 H         1 UNK         0.3141 
     92 H92       -71.1373   26.7528  -76.4554 H         1 UNK         0.0743 
     93 H93       -71.4834   25.4166  -73.7088 H         1 UNK         0.0784 
     94 H94       -70.2860   24.9843  -74.9286 H         1 UNK         0.0784 
     95 H95       -70.1981   26.5432  -74.1228 H         1 UNK         0.0784 
     96 H96       -73.6847   25.5351  -75.7526 H         1 UNK         0.3213 
     97 H97       -73.3156   23.1470  -78.4503 H         1 UNK         0.0855 
     98 H98       -74.3379   22.9916  -75.5653 H         1 UNK         0.0814 
     99 H99       -73.1604   21.9213  -76.3067 H         1 UNK         0.0814 
    100 H100      -74.8185   21.9319  -76.8873 H         1 UNK         0.0814 
    101 H101      -75.6069   24.4054  -77.2431 H         1 UNK         0.3105 
    102 H102      -75.9090   27.0170  -79.6574 H         1 UNK         0.0547 
    103 H103      -76.8650   25.0355  -80.8314 H         1 UNK         0.0837 
    104 H104      -77.5547   24.4531  -79.3233 H         1 UNK         0.0837 
    105 H105      -78.1244   25.9629  -80.0325 H         1 UNK         0.0837 
    106 H106      -77.6327   26.2202  -77.5442 H         1 UNK         0.3020 
    107 H107      -76.0048   28.0463  -74.9284 H         1 UNK         0.1245 
    108 H108      -78.6754   28.5802  -74.9648 H         1 UNK         0.0781 
    109 H109      -78.4173   28.7218  -76.6710 H         1 UNK         0.0781 
    110 H110      -79.1540   30.9952  -74.0977 H         1 UNK         0.0836 
    111 H111      -77.7573   31.9344  -73.6332 H         1 UNK         0.0836 
    112 H112      -78.2747   26.4341  -74.7559 H         1 UNK         0.3022 
    113 H113      -76.6468   23.2755  -74.3024 H         1 UNK         0.0747 
    114 H114      -78.1907   23.3873  -72.3397 H         1 UNK         0.0793 
    115 H115      -76.7618   24.3785  -72.0946 H         1 UNK         0.0793 
    116 H116      -78.2875   25.1403  -72.4993 H         1 UNK         0.0793 
    117 H117      -79.3812   24.2322  -74.6000 H         1 UNK         0.3047 
    118 H118      -79.6058   23.5971  -78.0802 H         1 UNK         0.0822 
    119 H119      -81.4744   22.0897  -77.4016 H         1 UNK         0.0807 
    120 H120      -80.7597   21.9039  -75.8015 H         1 UNK         0.0807 
    121 H121      -79.9142   21.3045  -77.2183 H         1 UNK         0.0807 
    122 H122      -81.4797   24.3282  -75.9854 H         1 UNK         0.2946 
    123 H123      -80.8659   27.8311  -76.2214 H         1 UNK         0.1144 
    124 H124      -83.2414   27.9938  -76.9192 H         1 UNK         0.0793 
    125 H125      -83.2441   26.2985  -77.4089 H         1 UNK         0.0793 
    126 H126      -82.2530   27.4675  -78.2707 H         1 UNK         0.0793 
    127 H127      -82.9540   26.3909  -74.9399 H         1 UNK         0.2896 
@<TRIPOS>BOND
     1    1    2 1    
     2    1   67 1    
     3    1   68 1    
     4    1   69 1    
     5    2    3 2    
     6    2    4 am   BACKBONE|DICT|INTERRES
     7    4    5 1    
     8    4   70 1    
     9    5    6 1    
    10    5   65 1    
    11    5   71 1    
    12    6    7 1    
    13    6   72 1    
    14    6   73 1    
    15    7    8 1    
    16    8    9 1    
    17    8   74 1    
    18    8   75 1    
    19    9   10 ar   
    20    9   14 ar   
    21   10   11 ar   
    22   10   76 1    
    23   11   12 ar   
    24   11   48 1    
    25   12   13 ar   
    26   12   77 1    
    27   13   14 ar   
    28   13   15 1    
    29   14   78 1    
    30   15   16 1    
    31   15   79 1    
    32   15   80 1    
    33   16   17 1    
    34   17   18 1    
    35   17   81 1    
    36   17   82 1    
    37   18   19 1    
    38   18   22 1    
    39   18   83 1    
    40   19   20 am   BACKBONE|DICT|INTERRES
    41   19   21 2    
    42   20   84 1    
    43   20   85 1    
    44   22   23 am   BACKBONE|DICT|INTERRES
    45   22   86 1    
    46   23   24 2    
    47   23   25 1    
    48   25   26 1    
    49   25   27 1    
    50   25   87 1    
    51   26   88 1    
    52   26   89 1    
    53   26   90 1    
    54   27   28 am   BACKBONE|DICT|INTERRES
    55   27   91 1    
    56   28   29 2    
    57   28   30 1    
    58   30   31 1    
    59   30   32 1    
    60   30   92 1    
    61   31   93 1    
    62   31   94 1    
    63   31   95 1    
    64   32   33 am   BACKBONE|DICT|INTERRES
    65   32   96 1    
    66   33   34 2    
    67   33   35 1    
    68   35   36 1    
    69   35   37 1    
    70   35   97 1    
    71   36   98 1    
    72   36   99 1    
    73   36  100 1    
    74   37   38 am   BACKBONE|DICT|INTERRES
    75   37  101 1    
    76   38   39 2    
    77   38   40 1    
    78   40   41 1    
    79   40   42 1    
    80   40  102 1    
    81   41  103 1    
    82   41  104 1    
    83   41  105 1    
    84   42   43 am   BACKBONE|DICT|INTERRES
    85   42  106 1    
    86   43   44 2    
    87   43   45 1    
    88   45   46 1    
    89   45   49 1    
    90   45  107 1    
    91   46   47 1    
    92   46  108 1    
    93   46  109 1    
    94   47   48 1    
    95   48  110 1    
    96   48  111 1    
    97   49   50 am   BACKBONE|DICT|INTERRES
    98   49  112 1    
    99   50   51 2    
   100   50   52 1    
   101   52   53 1    
   102   52   54 1    
   103   52  113 1    
   104   53  114 1    
   105   53  115 1    
   106   53  116 1    
   107   54   55 am   BACKBONE|DICT|INTERRES
   108   54  117 1    
   109   55   56 2    
   110   55   57 1    
   111   57   58 1    
   112   57   59 1    
   113   57  118 1    
   114   58  119 1    
   115   58  120 1    
   116   58  121 1    
   117   59   60 am   BACKBONE|DICT|INTERRES
   118   59  122 1    
   119   60   61 2    
   120   60   62 1    
   121   62   63 1    
   122   62   64 1    
   123   62  123 1    
   124   63  124 1    
   125   63  125 1    
   126   63  126 1    
   127   64   65 am   BACKBONE|DICT|INTERRES
   128   64  127 1    
   129   65   66 2    
@<TRIPOS>SUBSTRUCTURE
     1 UNK         1 GROUP             0       ****    0 ROOT    
