@<TRIPOS>MOLECULE
3R135
127   129    1
SMALL
USER_CHARGES


@<TRIPOS>ATOM
      1 CA        -79.3212   28.6234  -70.3751 C.3       0 UNK        -0.1998 
      2 C         -80.5398   28.2743  -71.2136 C.2       0 UNK         0.4909 
      3 O         -81.5775   27.9030  -70.6645 O.2       0 UNK        -0.5240 
      4 N         -80.4253   28.4006  -72.5423 N.am      1 UNK        -0.4739 
      5 CA        -81.5103   28.1415  -73.4979 C.3       1 UNK         0.0864 
      6 C6        -81.2630   28.8549  -74.8523 C.3       11 UNK        -0.0881 
      7 S7        -79.9120   28.1485  -75.8637 S.3       11 UNK        -0.2682 
      8 C8        -78.6307   29.4357  -75.7539 C.3       11 UNK         0.0289 
      9 C9        -77.8411   29.4145  -74.4475 C.ar      11 UNK        -0.0687 
     10 C10       -77.3805   28.2122  -73.8950 C.ar      11 UNK        -0.0823 
     11 C11       -76.6041   28.2117  -72.7310 C.ar      11 UNK        -0.0830 
     12 C12       -76.3010   29.4272  -72.1117 C.ar      11 UNK        -0.1021 
     13 C13       -76.7701   30.6333  -72.6390 C.ar      11 UNK        -0.0753 
     14 C14       -77.5318   30.6202  -73.8105 C.ar      11 UNK        -0.0933 
     15 C15       -76.4931   31.9467  -71.9190 C.3       11 UNK         0.0166 
     16 S16       -75.1043   32.8706  -72.6500 S.3       11 UNK        -0.2615 
     17 C17       -73.6769   31.8160  -72.2213 C.3       11 UNK        -0.0865 
     18 CA        -73.0420   31.1621  -73.4845 C.3       10 UNK         0.0862 
     19 C         -71.9469   32.0282  -74.1766 C.2       10 UNK         0.5551 
     20 N         -71.3229   31.5249  -75.2330 N.am      10 UNK        -0.7319 
     21 O         -71.6529   33.1496  -73.7682 O.2       10 UNK        -0.5018 
     22 N         -72.6181   29.7746  -73.2482 N.am      10 UNK        -0.4509 
     23 C         -71.6612   29.3635  -72.4053 C.2       10 UNK         0.4899 
     24 O         -71.0259   30.1126  -71.6635 O.2       10 UNK        -0.4839 
     25 CA        -71.3746   27.8507  -72.3678 C.3       9 UNK         0.0222 
     26 CB        -72.1179   27.1974  -71.1924 C.3       9 UNK        -0.1966 
     27 N         -71.7541   27.1814  -73.6169 N.am      9 UNK        -0.4218 
     28 C         -70.9723   27.1273  -74.7055 C.2       9 UNK         0.5020 
     29 O         -69.8072   27.5256  -74.7370 O.2       9 UNK        -0.5274 
     30 CA        -71.6114   26.5644  -75.9885 C.3       8 UNK         0.0270 
     31 CB        -71.5826   25.0280  -75.9727 C.3       8 UNK        -0.1976 
     32 N         -72.9811   27.0518  -76.2130 N.am      8 UNK        -0.4313 
     33 C         -73.2881   28.3474  -76.3934 C.2       8 UNK         0.5041 
     34 O         -72.4331   29.2317  -76.4464 O.2       8 UNK        -0.5577 
     35 CA        -74.7713   28.7608  -76.4495 C.3       7 UNK         0.0284 
     36 CB        -75.0018   30.0019  -77.3404 C.3       7 UNK        -0.1958 
     37 N         -75.6965   27.6696  -76.7706 N.am      7 UNK        -0.4454 
     38 C         -75.8587   27.0354  -77.9399 C.2       7 UNK         0.5089 
     39 O         -75.2431   27.3137  -78.9698 O.2       7 UNK        -0.5125 
     40 CA        -76.8732   25.8680  -77.9273 C.3       6 UNK         0.0408 
     41 CB        -76.7334   24.9503  -79.1588 C.3       6 UNK        -0.1791 
     42 N         -76.8363   25.0660  -76.6933 N.am      6 UNK        -0.4762 
     43 C         -75.7481   24.4974  -76.1468 C.2       6 UNK         0.5007 
     44 O         -74.6155   24.5964  -76.6149 O.2       6 UNK        -0.5032 
     45 CA        -75.9532   23.7021  -74.8491 C.3       5 UNK         0.0783 
     46 C46       -76.3409   24.6037  -73.6524 C.3       11 UNK        -0.0857 
     47 S47       -75.1223   25.9007  -73.2440 S.3       11 UNK        -0.2512 
     48 C48       -76.1252   26.9083  -72.1033 C.3       11 UNK         0.0225 
     49 N         -76.9570   22.6655  -75.0788 N.am      5 UNK        -0.4615 
     50 C         -76.6944   21.4407  -75.5547 C.2       4 UNK         0.5053 
     51 O         -75.5578   21.0241  -75.7781 O.2       4 UNK        -0.5105 
     52 CA        -77.8948   20.5109  -75.8165 C.3       4 UNK         0.0263 
     53 CB        -78.0743   19.5283  -74.6478 C.3       4 UNK        -0.1981 
     54 N         -79.1489   21.2377  -76.0265 N.am      4 UNK        -0.4224 
     55 C         -79.4531   21.9324  -77.1323 C.2       3 UNK         0.4895 
     56 O         -78.7552   21.9464  -78.1458 O.2       3 UNK        -0.5091 
     57 CA        -80.7416   22.7756  -77.0916 C.3       3 UNK         0.0250 
     58 CB        -81.9065   22.0099  -77.7394 C.3       3 UNK        -0.1996 
     59 N         -81.1307   23.2027  -75.7407 N.am      3 UNK        -0.4254 
     60 C         -80.4110   24.0292  -74.9701 C.2       2 UNK         0.5004 
     61 O         -79.3203   24.5003  -75.3040 O.2       2 UNK        -0.5226 
     62 CA        -80.9568   24.3242  -73.5668 C.3       2 UNK         0.0269 
     63 CB        -80.1331   23.5801  -72.5027 C.3       2 UNK        -0.1926 
     64 N         -80.8905   25.7598  -73.3079 N.am      2 UNK        -0.4687 
     65 C         -81.8284   26.6398  -73.6846 C.2       1 UNK         0.5165 
     66 O         -82.9090   26.3097  -74.1771 O.2       1 UNK        -0.5079 
     67 H67       -78.6275   27.7842  -70.3429 H         1 UNK         0.0900 
     68 H68       -79.6147   28.8623  -69.3532 H         1 UNK         0.0900 
     69 H69       -78.8041   29.4909  -70.7829 H         1 UNK         0.0900 
     70 H70       -79.5491   28.7060  -72.9462 H         1 UNK         0.2959 
     71 H71       -82.4164   28.5808  -73.0738 H         1 UNK         0.1079 
     72 H72       -82.1728   28.8180  -75.4545 H         1 UNK         0.0837 
     73 H73       -81.0788   29.9166  -74.6809 H         1 UNK         0.0837 
     74 H74       -77.9394   29.2842  -76.5804 H         1 UNK         0.0685 
     75 H75       -79.0889   30.4117  -75.9208 H         1 UNK         0.0685 
     76 H76       -77.6275   27.2759  -74.3738 H         1 UNK         0.1434 
     77 H77       -75.7207   29.4340  -71.1994 H         1 UNK         0.1329 
     78 H78       -77.8828   31.5556  -74.2249 H         1 UNK         0.1335 
     79 H79       -77.3855   32.5732  -71.9575 H         1 UNK         0.0680 
     80 H80       -76.2959   31.7719  -70.8601 H         1 UNK         0.0680 
     81 H81       -74.0087   31.0501  -71.5210 H         1 UNK         0.1032 
     82 H82       -72.9466   32.4024  -71.6611 H         1 UNK         0.1032 
     83 H83       -73.8303   31.0645  -74.2323 H         1 UNK         0.0461 
     84 H84       -70.6088   32.0663  -75.6922 H         1 UNK         0.3453 
     85 H85       -71.6116   30.6288  -75.6240 H         1 UNK         0.3453 
     86 H86       -73.0474   29.0838  -73.8411 H         1 UNK         0.2984 
     87 H87       -70.3034   27.7180  -72.2014 H         1 UNK         0.0554 
     88 H88       -71.9267   26.1252  -71.1447 H         1 UNK         0.0847 
     89 H89       -73.1946   27.3450  -71.2639 H         1 UNK         0.0847 
     90 H90       -71.7955   27.6264  -70.2426 H         1 UNK         0.0847 
     91 H91       -72.6860   26.7924  -73.6680 H         1 UNK         0.3141 
     92 H92       -71.0034   26.9020  -76.8306 H         1 UNK         0.0743 
     93 H93       -72.2188   24.6181  -75.1872 H         1 UNK         0.0784 
     94 H94       -71.9175   24.6170  -76.9252 H         1 UNK         0.0784 
     95 H95       -70.5711   24.6571  -75.8011 H         1 UNK         0.0784 
     96 H96       -73.7144   26.3496  -76.2487 H         1 UNK         0.3213 
     97 H97       -75.0207   29.0574  -75.4299 H         1 UNK         0.0855 
     98 H98       -74.4321   30.8566  -76.9731 H         1 UNK         0.0814 
     99 H99       -76.0473   30.3039  -77.3557 H         1 UNK         0.0814 
    100 H100      -74.6873   29.8268  -78.3693 H         1 UNK         0.0814 
    101 H101      -76.2417   27.3262  -75.9936 H         1 UNK         0.3105 
    102 H102      -77.8634   26.3248  -77.9643 H         1 UNK         0.0547 
    103 H103      -76.8672   25.5108  -80.0847 H         1 UNK         0.0837 
    104 H104      -75.7507   24.4796  -79.2006 H         1 UNK         0.0837 
    105 H105      -77.4833   24.1598  -79.1503 H         1 UNK         0.0837 
    106 H106      -77.7339   24.9273  -76.2306 H         1 UNK         0.3020 
    107 H107      -74.9994   23.2269  -74.6063 H         1 UNK         0.1245 
    108 H108      -76.4675   23.9838  -72.7633 H         1 UNK         0.0781 
    109 H109      -77.3082   25.0737  -73.8248 H         1 UNK         0.0781 
    110 H110      -75.5292   27.1089  -71.2126 H         1 UNK         0.0836 
    111 H111      -76.9893   26.3425  -71.7528 H         1 UNK         0.0836 
    112 H112      -77.9213   22.9598  -74.9937 H         1 UNK         0.3022 
    113 H113      -77.6747   19.9350  -76.7182 H         1 UNK         0.0747 
    114 H114      -78.8780   18.8186  -74.8452 H         1 UNK         0.0793 
    115 H115      -77.1654   18.9474  -74.4838 H         1 UNK         0.0793 
    116 H116      -78.3026   20.0455  -73.7149 H         1 UNK         0.0793 
    117 H117      -79.7991   21.2595  -75.2548 H         1 UNK         0.3047 
    118 H118      -80.5539   23.6762  -77.6808 H         1 UNK         0.0822 
    119 H119      -82.8019   22.6286  -77.8036 H         1 UNK         0.0807 
    120 H120      -82.1591   21.1079  -77.1804 H         1 UNK         0.0807 
    121 H121      -81.6545   21.7032  -78.7558 H         1 UNK         0.0807 
    122 H122      -82.0124   22.8515  -75.3940 H         1 UNK         0.2946 
    123 H123      -81.9945   23.9887  -73.4996 H         1 UNK         0.1144 
    124 H124      -80.1668   22.5018  -72.6632 H         1 UNK         0.0793 
    125 H125      -80.5214   23.7689  -71.5016 H         1 UNK         0.0793 
    126 H126      -79.0849   23.8794  -72.5140 H         1 UNK         0.0793 
    127 H127      -80.0176   26.1221  -72.9557 H         1 UNK         0.2896 
@<TRIPOS>BOND
     1    1    2 1    
     2    1   67 1    
     3    1   68 1    
     4    1   69 1    
     5    2    3 2    
     6    2    4 am   BACKBONE|DICT|INTERRES
     7    4    5 1    
     8    4   70 1    
     9    5    6 1    
    10    5   65 1    
    11    5   71 1    
    12    6    7 1    
    13    6   72 1    
    14    6   73 1    
    15    7    8 1    
    16    8    9 1    
    17    8   74 1    
    18    8   75 1    
    19    9   10 ar   
    20    9   14 ar   
    21   10   11 ar   
    22   10   76 1    
    23   11   12 ar   
    24   11   48 1    
    25   12   13 ar   
    26   12   77 1    
    27   13   14 ar   
    28   13   15 1    
    29   14   78 1    
    30   15   16 1    
    31   15   79 1    
    32   15   80 1    
    33   16   17 1    
    34   17   18 1    
    35   17   81 1    
    36   17   82 1    
    37   18   19 1    
    38   18   22 1    
    39   18   83 1    
    40   19   20 am   BACKBONE|DICT|INTERRES
    41   19   21 2    
    42   20   84 1    
    43   20   85 1    
    44   22   23 am   BACKBONE|DICT|INTERRES
    45   22   86 1    
    46   23   24 2    
    47   23   25 1    
    48   25   26 1    
    49   25   27 1    
    50   25   87 1    
    51   26   88 1    
    52   26   89 1    
    53   26   90 1    
    54   27   28 am   BACKBONE|DICT|INTERRES
    55   27   91 1    
    56   28   29 2    
    57   28   30 1    
    58   30   31 1    
    59   30   32 1    
    60   30   92 1    
    61   31   93 1    
    62   31   94 1    
    63   31   95 1    
    64   32   33 am   BACKBONE|DICT|INTERRES
    65   32   96 1    
    66   33   34 2    
    67   33   35 1    
    68   35   36 1    
    69   35   37 1    
    70   35   97 1    
    71   36   98 1    
    72   36   99 1    
    73   36  100 1    
    74   37   38 am   BACKBONE|DICT|INTERRES
    75   37  101 1    
    76   38   39 2    
    77   38   40 1    
    78   40   41 1    
    79   40   42 1    
    80   40  102 1    
    81   41  103 1    
    82   41  104 1    
    83   41  105 1    
    84   42   43 am   BACKBONE|DICT|INTERRES
    85   42  106 1    
    86   43   44 2    
    87   43   45 1    
    88   45   46 1    
    89   45   49 1    
    90   45  107 1    
    91   46   47 1    
    92   46  108 1    
    93   46  109 1    
    94   47   48 1    
    95   48  110 1    
    96   48  111 1    
    97   49   50 am   BACKBONE|DICT|INTERRES
    98   49  112 1    
    99   50   51 2    
   100   50   52 1    
   101   52   53 1    
   102   52   54 1    
   103   52  113 1    
   104   53  114 1    
   105   53  115 1    
   106   53  116 1    
   107   54   55 am   BACKBONE|DICT|INTERRES
   108   54  117 1    
   109   55   56 2    
   110   55   57 1    
   111   57   58 1    
   112   57   59 1    
   113   57  118 1    
   114   58  119 1    
   115   58  120 1    
   116   58  121 1    
   117   59   60 am   BACKBONE|DICT|INTERRES
   118   59  122 1    
   119   60   61 2    
   120   60   62 1    
   121   62   63 1    
   122   62   64 1    
   123   62  123 1    
   124   63  124 1    
   125   63  125 1    
   126   63  126 1    
   127   64   65 am   BACKBONE|DICT|INTERRES
   128   64  127 1    
   129   65   66 2    
@<TRIPOS>SUBSTRUCTURE
     1 UNK         1 GROUP             0       ****    0 ROOT    
