@<TRIPOS>MOLECULE
3R135
127   129    1
SMALL
USER_CHARGES


@<TRIPOS>ATOM
      1 CA        -84.4550   27.8668  -71.4164 C.3       0 UNK        -0.1998 
      2 C         -83.7998   28.0339  -72.7793 C.2       0 UNK         0.4909 
      3 O         -84.5014   28.1562  -73.7837 O.2       0 UNK        -0.5240 
      4 N         -82.4604   28.0462  -72.8189 N.am      1 UNK        -0.4739 
      5 CA        -81.6558   28.1573  -74.0417 C.3       1 UNK         0.0864 
      6 C6        -80.1799   28.4799  -73.6957 C.3       11 UNK        -0.0881 
      7 S7        -79.1591   28.9101  -75.1469 S.3       11 UNK        -0.2682 
      8 C8        -78.1329   30.2818  -74.5152 C.3       11 UNK         0.0289 
      9 C9        -77.2753   29.9413  -73.2957 C.ar      11 UNK        -0.0687 
     10 C10       -76.7770   28.6522  -73.0698 C.ar      11 UNK        -0.0823 
     11 C11       -76.0077   28.3656  -71.9374 C.ar      11 UNK        -0.0830 
     12 C12       -75.7026   29.3956  -71.0436 C.ar      11 UNK        -0.1021 
     13 C13       -76.1449   30.6981  -71.2835 C.ar      11 UNK        -0.0753 
     14 C14       -76.9451   30.9599  -72.3983 C.ar      11 UNK        -0.0933 
     15 C15       -75.7444   31.8312  -70.3538 C.3       11 UNK         0.0166 
     16 S16       -74.4076   32.8385  -71.0725 S.3       11 UNK        -0.2615 
     17 C17       -72.9326   31.7954  -70.7970 C.3       11 UNK        -0.0865 
     18 CA        -71.9973   31.7458  -72.0434 C.3       10 UNK         0.0862 
     19 C         -70.5541   31.2152  -71.7688 C.2       10 UNK         0.5551 
     20 N         -70.1401   31.0342  -70.5206 N.am      10 UNK        -0.7319 
     21 O         -69.7716   31.0248  -72.6977 O.2       10 UNK        -0.5018 
     22 N         -72.6268   31.0979  -73.2088 N.am      10 UNK        -0.4509 
     23 C         -72.8396   29.7830  -73.3678 C.2       10 UNK         0.4899 
     24 O         -72.5926   28.9398  -72.5022 O.2       10 UNK        -0.4839 
     25 CA        -73.4589   29.3263  -74.7082 C.3       9 UNK         0.0222 
     26 CB        -73.3132   30.3440  -75.8622 C.3       9 UNK        -0.1966 
     27 N         -72.9814   27.9994  -75.1147 N.am      9 UNK        -0.4218 
     28 C         -71.7234   27.6380  -75.4134 C.2       9 UNK         0.5020 
     29 O         -70.7715   28.4177  -75.4691 O.2       9 UNK        -0.5274 
     30 CA        -71.4812   26.1485  -75.7084 C.3       8 UNK         0.0270 
     31 CB        -71.3803   25.3515  -74.3964 C.3       8 UNK        -0.1976 
     32 N         -72.5499   25.5846  -76.5355 N.am      8 UNK        -0.4313 
     33 C         -72.4594   25.3305  -77.8480 C.2       8 UNK         0.5041 
     34 O         -71.4299   25.4867  -78.5065 O.2       8 UNK        -0.5577 
     35 CA        -73.7253   24.8086  -78.5604 C.3       7 UNK         0.0284 
     36 CB        -73.7123   23.2723  -78.6153 C.3       7 UNK        -0.1958 
     37 N         -74.9810   25.2487  -77.9480 N.am      7 UNK        -0.4454 
     38 C         -75.3816   26.5224  -77.8329 C.2       7 UNK         0.5089 
     39 O         -74.7847   27.4787  -78.3270 O.2       7 UNK        -0.5125 
     40 CA        -76.6432   26.7777  -76.9892 C.3       6 UNK         0.0408 
     41 CB        -77.8791   26.8077  -77.9010 C.3       6 UNK        -0.1791 
     42 N         -76.8631   25.8150  -75.8999 N.am      6 UNK        -0.4762 
     43 C         -75.9906   25.5030  -74.9287 C.2       6 UNK         0.5007 
     44 O         -74.8381   25.9292  -74.8911 O.2       6 UNK        -0.5032 
     45 CA        -76.4735   24.5294  -73.8389 C.3       5 UNK         0.0783 
     46 C46       -77.4535   25.2081  -72.8398 C.3       11 UNK        -0.0857 
     47 S47       -76.6930   25.7246  -71.2585 S.3       11 UNK        -0.2512 
     48 C48       -75.4361   26.9720  -71.7037 C.3       11 UNK         0.0225 
     49 N         -77.0672   23.3588  -74.4821 N.am      5 UNK        -0.4615 
     50 C         -76.3706   22.3171  -74.9549 C.2       4 UNK         0.5053 
     51 O         -75.1583   22.1760  -74.7963 O.2       4 UNK        -0.5105 
     52 CA        -77.1513   21.2575  -75.7536 C.3       4 UNK         0.0263 
     53 CB        -77.5922   20.1087  -74.8326 C.3       4 UNK        -0.1981 
     54 N         -78.3236   21.7983  -76.4474 N.am      4 UNK        -0.4224 
     55 C         -78.2733   22.6804  -77.4558 C.2       3 UNK         0.4895 
     56 O         -77.2267   23.1122  -77.9412 O.2       3 UNK        -0.5091 
     57 CA        -79.6235   23.2021  -77.9801 C.3       3 UNK         0.0250 
     58 CB        -80.1858   22.2500  -79.0477 C.3       3 UNK        -0.1996 
     59 N         -80.6430   23.4368  -76.9464 N.am      3 UNK        -0.4254 
     60 C         -80.4920   24.2116  -75.8621 C.2       2 UNK         0.5004 
     61 O         -79.4229   24.7263  -75.5282 O.2       2 UNK        -0.5226 
     62 CA        -81.7303   24.4083  -74.9711 C.3       2 UNK         0.0269 
     63 CB        -81.7966   23.3019  -73.9061 C.3       2 UNK        -0.1926 
     64 N         -81.7168   25.7121  -74.2999 N.am      2 UNK        -0.4687 
     65 C         -81.7897   26.8967  -74.9271 C.2       1 UNK         0.5165 
     66 O         -81.9863   27.0168  -76.1382 O.2       1 UNK        -0.5079 
     67 H67       -83.7192   27.7798  -70.6171 H         1 UNK         0.0900 
     68 H68       -85.0744   26.9703  -71.4058 H         1 UNK         0.0900 
     69 H69       -85.0918   28.7238  -71.1988 H         1 UNK         0.0900 
     70 H70       -81.9427   27.9522  -71.9565 H         1 UNK         0.2959 
     71 H71       -82.0551   28.9957  -74.6175 H         1 UNK         0.1079 
     72 H72       -80.1492   29.3194  -72.9991 H         1 UNK         0.0837 
     73 H73       -79.7119   27.6444  -73.1738 H         1 UNK         0.0837 
     74 H74       -77.4733   30.6158  -75.3169 H         1 UNK         0.0685 
     75 H75       -78.7925   31.1204  -74.2865 H         1 UNK         0.0685 
     76 H76       -76.9788   27.8768  -73.7891 H         1 UNK         0.1434 
     77 H77       -75.0857   29.1919  -70.1793 H         1 UNK         0.1329 
     78 H78       -77.2923   31.9685  -72.5772 H         1 UNK         0.1335 
     79 H79       -75.4367   31.4505  -69.3785 H         1 UNK         0.0680 
     80 H80       -76.6089   32.4716  -70.1724 H         1 UNK         0.0680 
     81 H81       -73.2232   30.7872  -70.5003 H         1 UNK         0.1032 
     82 H82       -72.4178   32.2300  -69.9394 H         1 UNK         0.1032 
     83 H83       -71.8338   32.7792  -72.3516 H         1 UNK         0.0461 
     84 H84       -69.1971   30.7141  -70.3635 H         1 UNK         0.3453 
     85 H85       -70.7493   31.1934  -69.7350 H         1 UNK         0.3453 
     86 H86       -72.8500   31.7132  -73.9763 H         1 UNK         0.2984 
     87 H87       -74.5248   29.2057  -74.5218 H         1 UNK         0.0554 
     88 H88       -73.7180   29.9405  -76.7908 H         1 UNK         0.0847 
     89 H89       -72.2710   30.6088  -76.0442 H         1 UNK         0.0847 
     90 H90       -73.8613   31.2635  -75.6543 H         1 UNK         0.0847 
     91 H91       -73.6751   27.2571  -75.0433 H         1 UNK         0.3141 
     92 H92       -70.5227   26.0635  -76.2249 H         1 UNK         0.0743 
     93 H93       -72.3069   25.3923  -73.8222 H         1 UNK         0.0784 
     94 H94       -71.1516   24.3030  -74.5878 H         1 UNK         0.0784 
     95 H95       -70.5863   25.7467  -73.7613 H         1 UNK         0.0784 
     96 H96       -73.4522   25.4709  -76.0815 H         1 UNK         0.3213 
     97 H97       -73.7054   25.1911  -79.5830 H         1 UNK         0.0855 
     98 H98       -73.7648   22.8334  -77.6178 H         1 UNK         0.0814 
     99 H99       -72.8001   22.9050  -79.0876 H         1 UNK         0.0814 
    100 H100      -74.5534   22.8889  -79.1935 H         1 UNK         0.0814 
    101 H101      -75.5896   24.5274  -77.5771 H         1 UNK         0.3105 
    102 H102      -76.5353   27.7593  -76.5236 H         1 UNK         0.0547 
    103 H103      -77.8246   27.6447  -78.5979 H         1 UNK         0.0837 
    104 H104      -77.9565   25.8980  -78.4952 H         1 UNK         0.0837 
    105 H105      -78.8028   26.9173  -77.3328 H         1 UNK         0.0837 
    106 H106      -77.7990   25.4137  -75.8409 H         1 UNK         0.3020 
    107 H107      -75.5914   24.1961  -73.2867 H         1 UNK         0.1245 
    108 H108      -78.2291   24.4950  -72.5553 H         1 UNK         0.0781 
    109 H109      -78.0097   26.0322  -73.2844 H         1 UNK         0.0781 
    110 H110      -74.8477   26.6584  -72.5600 H         1 UNK         0.0836 
    111 H111      -74.7185   27.0080  -70.8826 H         1 UNK         0.0836 
    112 H112      -78.0468   23.4432  -74.7268 H         1 UNK         0.3022 
    113 H113      -76.4735   20.8524  -76.5082 H         1 UNK         0.0747 
    114 H114      -78.0747   19.3101  -75.3964 H         1 UNK         0.0793 
    115 H115      -76.7350   19.6686  -74.3207 H         1 UNK         0.0793 
    116 H116      -78.2896   20.4493  -74.0660 H         1 UNK         0.0793 
    117 H117      -79.2301   21.5031  -76.1152 H         1 UNK         0.3047 
    118 H118      -79.4345   24.1629  -78.4595 H         1 UNK         0.0822 
    119 H119      -81.0761   22.6645  -79.5213 H         1 UNK         0.0807 
    120 H120      -80.4497   21.2790  -78.6267 H         1 UNK         0.0807 
    121 H121      -79.4547   22.0744  -79.8385 H         1 UNK         0.0807 
    122 H122      -81.5518   23.0327  -77.1234 H         1 UNK         0.2946 
    123 H123      -82.6245   24.3598  -75.5965 H         1 UNK         0.1144 
    124 H124      -81.8426   22.3142  -74.3670 H         1 UNK         0.0793 
    125 H125      -82.6836   23.4057  -73.2807 H         1 UNK         0.0793 
    126 H126      -80.9222   23.3167  -73.2538 H         1 UNK         0.0793 
    127 H127      -81.5578   25.7078  -73.3037 H         1 UNK         0.2896 
@<TRIPOS>BOND
     1    1    2 1    
     2    1   67 1    
     3    1   68 1    
     4    1   69 1    
     5    2    3 2    
     6    2    4 am   BACKBONE|DICT|INTERRES
     7    4    5 1    
     8    4   70 1    
     9    5    6 1    
    10    5   65 1    
    11    5   71 1    
    12    6    7 1    
    13    6   72 1    
    14    6   73 1    
    15    7    8 1    
    16    8    9 1    
    17    8   74 1    
    18    8   75 1    
    19    9   10 ar   
    20    9   14 ar   
    21   10   11 ar   
    22   10   76 1    
    23   11   12 ar   
    24   11   48 1    
    25   12   13 ar   
    26   12   77 1    
    27   13   14 ar   
    28   13   15 1    
    29   14   78 1    
    30   15   16 1    
    31   15   79 1    
    32   15   80 1    
    33   16   17 1    
    34   17   18 1    
    35   17   81 1    
    36   17   82 1    
    37   18   19 1    
    38   18   22 1    
    39   18   83 1    
    40   19   20 am   BACKBONE|DICT|INTERRES
    41   19   21 2    
    42   20   84 1    
    43   20   85 1    
    44   22   23 am   BACKBONE|DICT|INTERRES
    45   22   86 1    
    46   23   24 2    
    47   23   25 1    
    48   25   26 1    
    49   25   27 1    
    50   25   87 1    
    51   26   88 1    
    52   26   89 1    
    53   26   90 1    
    54   27   28 am   BACKBONE|DICT|INTERRES
    55   27   91 1    
    56   28   29 2    
    57   28   30 1    
    58   30   31 1    
    59   30   32 1    
    60   30   92 1    
    61   31   93 1    
    62   31   94 1    
    63   31   95 1    
    64   32   33 am   BACKBONE|DICT|INTERRES
    65   32   96 1    
    66   33   34 2    
    67   33   35 1    
    68   35   36 1    
    69   35   37 1    
    70   35   97 1    
    71   36   98 1    
    72   36   99 1    
    73   36  100 1    
    74   37   38 am   BACKBONE|DICT|INTERRES
    75   37  101 1    
    76   38   39 2    
    77   38   40 1    
    78   40   41 1    
    79   40   42 1    
    80   40  102 1    
    81   41  103 1    
    82   41  104 1    
    83   41  105 1    
    84   42   43 am   BACKBONE|DICT|INTERRES
    85   42  106 1    
    86   43   44 2    
    87   43   45 1    
    88   45   46 1    
    89   45   49 1    
    90   45  107 1    
    91   46   47 1    
    92   46  108 1    
    93   46  109 1    
    94   47   48 1    
    95   48  110 1    
    96   48  111 1    
    97   49   50 am   BACKBONE|DICT|INTERRES
    98   49  112 1    
    99   50   51 2    
   100   50   52 1    
   101   52   53 1    
   102   52   54 1    
   103   52  113 1    
   104   53  114 1    
   105   53  115 1    
   106   53  116 1    
   107   54   55 am   BACKBONE|DICT|INTERRES
   108   54  117 1    
   109   55   56 2    
   110   55   57 1    
   111   57   58 1    
   112   57   59 1    
   113   57  118 1    
   114   58  119 1    
   115   58  120 1    
   116   58  121 1    
   117   59   60 am   BACKBONE|DICT|INTERRES
   118   59  122 1    
   119   60   61 2    
   120   60   62 1    
   121   62   63 1    
   122   62   64 1    
   123   62  123 1    
   124   63  124 1    
   125   63  125 1    
   126   63  126 1    
   127   64   65 am   BACKBONE|DICT|INTERRES
   128   64  127 1    
   129   65   66 2    
@<TRIPOS>SUBSTRUCTURE
     1 UNK         1 GROUP             0       ****    0 ROOT    
