@<TRIPOS>MOLECULE
3R135
127   129    1
SMALL
USER_CHARGES


@<TRIPOS>ATOM
      1 CA        -86.0717   27.7459  -71.8045 C.3       0 UNK        -0.1998 
      2 C         -84.6501   27.3193  -72.1415 C.2       0 UNK         0.4909 
      3 O         -84.1167   26.4305  -71.4775 O.2       0 UNK        -0.5240 
      4 N         -84.0567   27.9531  -73.1653 N.am      1 UNK        -0.4739 
      5 CA        -82.7071   27.7484  -73.7156 C.3       1 UNK         0.0864 
      6 C6        -81.6031   28.6224  -73.0481 C.3       11 UNK        -0.0881 
      7 S7        -81.3244   28.3685  -71.2592 S.3       11 UNK        -0.2682 
      8 C8        -80.5323   29.9400  -70.7920 C.3       11 UNK         0.0289 
      9 C9        -79.0881   30.0068  -71.2679 C.ar      11 UNK        -0.0687 
     10 C10       -78.7850   30.5053  -72.5386 C.ar      11 UNK        -0.0823 
     11 C11       -77.4616   30.5462  -72.9900 C.ar      11 UNK        -0.0830 
     12 C12       -76.4344   30.1376  -72.1362 C.ar      11 UNK        -0.1021 
     13 C13       -76.7222   29.6466  -70.8599 C.ar      11 UNK        -0.0753 
     14 C14       -78.0518   29.5747  -70.4340 C.ar      11 UNK        -0.0933 
     15 C15       -75.5929   29.2210  -69.9334 C.3       11 UNK         0.0166 
     16 S16       -75.1678   27.4551  -70.0972 S.3       11 UNK        -0.2615 
     17 C17       -74.5811   27.3120  -71.8219 C.3       11 UNK        -0.0865 
     18 CA        -73.2421   28.0418  -72.1068 C.3       10 UNK         0.0862 
     19 C         -72.0291   27.3167  -71.4668 C.2       10 UNK         0.5551 
     20 N         -71.3627   27.9373  -70.5044 N.am      10 UNK        -0.7319 
     21 O         -71.7115   26.1841  -71.8186 O.2       10 UNK        -0.5018 
     22 N         -73.0381   28.2065  -73.5501 N.am      10 UNK        -0.4509 
     23 C         -72.2572   29.1436  -74.1050 C.2       10 UNK         0.4899 
     24 O         -71.7303   30.0580  -73.4694 O.2       10 UNK        -0.4839 
     25 CA        -72.0333   29.0324  -75.6275 C.3       9 UNK         0.0222 
     26 CB        -70.8966   29.9392  -76.1465 C.3       9 UNK        -0.1966 
     27 N         -71.8497   27.6411  -76.0606 N.am      9 UNK        -0.4218 
     28 C         -70.8742   26.7996  -75.6826 C.2       9 UNK         0.5020 
     29 O         -69.8934   27.1406  -75.0202 O.2       9 UNK        -0.5274 
     30 CA        -71.0094   25.3213  -76.0844 C.3       8 UNK         0.0270 
     31 CB        -71.1609   24.4363  -74.8337 C.3       8 UNK        -0.1976 
     32 N         -72.1466   25.0604  -76.9759 N.am      8 UNK        -0.4313 
     33 C         -72.0409   24.4860  -78.1814 C.2       8 UNK         0.5041 
     34 O         -70.9666   24.2083  -78.7170 O.2       8 UNK        -0.5577 
     35 CA        -73.3423   24.1208  -78.9130 C.3       7 UNK         0.0284 
     36 CB        -73.8242   22.7233  -78.4897 C.3       7 UNK        -0.1958 
     37 N         -74.4312   25.0842  -78.7396 N.am      7 UNK        -0.4454 
     38 C         -74.4808   26.2760  -79.3512 C.2       7 UNK         0.5089 
     39 O         -73.5512   26.7537  -80.0016 O.2       7 UNK        -0.5125 
     40 CA        -75.8014   27.0525  -79.2436 C.3       6 UNK         0.0408 
     41 CB        -76.8717   26.4318  -80.1566 C.3       6 UNK        -0.1791 
     42 N         -76.2931   27.0814  -77.8683 N.am      6 UNK        -0.4762 
     43 C         -75.9675   28.0244  -76.9734 C.2       6 UNK         0.5007 
     44 O         -75.2501   28.9907  -77.2309 O.2       6 UNK        -0.5032 
     45 CA        -76.4925   27.8313  -75.5337 C.3       5 UNK         0.0783 
     46 C46       -77.9093   28.4288  -75.3360 C.3       11 UNK        -0.0857 
     47 S47       -78.1036   30.2106  -75.7017 S.3       11 UNK        -0.2512 
     48 C48       -77.1268   31.0302  -74.3954 C.3       11 UNK         0.0225 
     49 N         -76.4671   26.4169  -75.1360 N.am      5 UNK        -0.4615 
     50 C         -75.3580   25.6663  -75.0498 C.2       4 UNK         0.5053 
     51 O         -74.2257   26.1231  -75.1957 O.2       4 UNK        -0.5105 
     52 CA        -75.5090   24.1528  -74.8063 C.3       4 UNK         0.0263 
     53 CB        -75.2438   23.8105  -73.3332 C.3       4 UNK        -0.1981 
     54 N         -76.8079   23.6066  -75.2005 N.am      4 UNK        -0.4224 
     55 C         -77.3269   23.6340  -76.4365 C.2       3 UNK         0.4895 
     56 O         -76.7299   24.0754  -77.4193 O.2       3 UNK        -0.5091 
     57 CA        -78.7821   23.1525  -76.5864 C.3       3 UNK         0.0250 
     58 CB        -78.8134   21.6791  -77.0209 C.3       3 UNK        -0.1996 
     59 N         -79.6056   23.3277  -75.3789 N.am      3 UNK        -0.4254 
     60 C         -79.8199   24.4989  -74.7611 C.2       2 UNK         0.5004 
     61 O         -79.3072   25.5613  -75.1203 O.2       2 UNK        -0.5226 
     62 CA        -80.6828   24.4684  -73.4902 C.3       2 UNK         0.0269 
     63 CB        -79.8176   24.1083  -72.2708 C.3       2 UNK        -0.1926 
     64 N         -81.2979   25.7747  -73.2568 N.am      2 UNK        -0.4687 
     65 C         -82.3386   26.2635  -73.9415 C.2       1 UNK         0.5165 
     66 O         -82.9890   25.6009  -74.7540 O.2       1 UNK        -0.5079 
     67 H67       -86.1205   28.1076  -70.7777 H         1 UNK         0.0900 
     68 H68       -86.4280   28.5403  -72.4601 H         1 UNK         0.0900 
     69 H69       -86.7501   26.8983  -71.8999 H         1 UNK         0.0900 
     70 H70       -84.5978   28.6502  -73.6576 H         1 UNK         0.2959 
     71 H71       -82.7859   28.1321  -74.7346 H         1 UNK         0.1079 
     72 H72       -80.6529   28.4889  -73.5688 H         1 UNK         0.0837 
     73 H73       -81.8646   29.6709  -73.1977 H         1 UNK         0.0837 
     74 H74       -80.5678   30.0381  -69.7060 H         1 UNK         0.0685 
     75 H75       -81.1055   30.7793  -71.1887 H         1 UNK         0.0685 
     76 H76       -79.5816   30.8389  -73.1891 H         1 UNK         0.1434 
     77 H77       -75.4065   30.1922  -72.4674 H         1 UNK         0.1329 
     78 H78       -78.2797   29.1893  -69.4495 H         1 UNK         0.1335 
     79 H79       -75.8832   29.4070  -68.8983 H         1 UNK         0.0680 
     80 H80       -74.7102   29.8378  -70.1027 H         1 UNK         0.0680 
     81 H81       -75.3692   27.6770  -72.4792 H         1 UNK         0.1032 
     82 H82       -74.4869   26.2524  -72.0554 H         1 UNK         0.1032 
     83 H83       -73.3094   29.0431  -71.6810 H         1 UNK         0.0461 
     84 H84       -70.5803   27.4725  -70.0717 H         1 UNK         0.3453 
     85 H85       -71.6188   28.8660  -70.2114 H         1 UNK         0.3453 
     86 H86       -73.3813   27.4534  -74.1398 H         1 UNK         0.2984 
     87 H87       -72.9562   29.3779  -76.0913 H         1 UNK         0.0554 
     88 H88       -71.1128   30.9887  -75.9431 H         1 UNK         0.0847 
     89 H89       -70.7697   29.8388  -77.2242 H         1 UNK         0.0847 
     90 H90       -69.9420   29.7093  -75.6726 H         1 UNK         0.0847 
     91 H91       -72.6169   27.2515  -76.5888 H         1 UNK         0.3141 
     92 H92       -70.0695   25.0543  -76.5714 H         1 UNK         0.0743 
     93 H93       -70.3184   24.5685  -74.1534 H         1 UNK         0.0784 
     94 H94       -72.0658   24.6788  -74.2758 H         1 UNK         0.0784 
     95 H95       -71.2012   23.3794  -75.0970 H         1 UNK         0.0784 
     96 H96       -73.0652   25.2627  -76.5961 H         1 UNK         0.3213 
     97 H97       -73.1080   24.0767  -79.9793 H         1 UNK         0.0855 
     98 H98       -74.0889   22.6859  -77.4336 H         1 UNK         0.0814 
     99 H99       -73.0477   21.9756  -78.6570 H         1 UNK         0.0814 
    100 H100      -74.6986   22.4148  -79.0633 H         1 UNK         0.0814 
    101 H101      -75.2598   24.7540  -78.2470 H         1 UNK         0.3105 
    102 H102      -75.6227   28.0724  -79.5913 H         1 UNK         0.0547 
    103 H103      -77.1178   25.4103  -79.8640 H         1 UNK         0.0837 
    104 H104      -76.5297   26.4005  -81.1920 H         1 UNK         0.0837 
    105 H105      -77.7923   27.0150  -80.1384 H         1 UNK         0.0837 
    106 H106      -76.8348   26.2828  -77.5614 H         1 UNK         0.3020 
    107 H107      -75.8062   28.3645  -74.8735 H         1 UNK         0.1245 
    108 H108      -78.2467   28.2450  -74.3151 H         1 UNK         0.0781 
    109 H109      -78.6212   27.9034  -75.9743 H         1 UNK         0.0781 
    110 H110      -77.3023   32.1054  -74.4484 H         1 UNK         0.0836 
    111 H111      -76.0681   30.8835  -74.6154 H         1 UNK         0.0836 
    112 H112      -77.3761   25.9757  -75.0257 H         1 UNK         0.3022 
    113 H113      -74.7484   23.6541  -75.4083 H         1 UNK         0.0747 
    114 H114      -75.9606   24.2949  -72.6686 H         1 UNK         0.0793 
    115 H115      -75.2985   22.7356  -73.1594 H         1 UNK         0.0793 
    116 H116      -74.2444   24.1284  -73.0331 H         1 UNK         0.0793 
    117 H117      -77.3798   23.2260  -74.4613 H         1 UNK         0.3047 
    118 H118      -79.2350   23.7529  -77.3783 H         1 UNK         0.0822 
    119 H119      -79.8298   21.3499  -77.2382 H         1 UNK         0.0807 
    120 H120      -78.4030   21.0216  -76.2534 H         1 UNK         0.0807 
    121 H121      -78.2260   21.5272  -77.9279 H         1 UNK         0.0807 
    122 H122      -80.0469   22.4959  -75.0123 H         1 UNK         0.2946 
    123 H123      -81.4708   23.7211  -73.6098 H         1 UNK         0.1144 
    124 H124      -80.4114   24.0906  -71.3565 H         1 UNK         0.0793 
    125 H125      -79.0045   24.8218  -72.1270 H         1 UNK         0.0793 
    126 H126      -79.3699   23.1199  -72.3823 H         1 UNK         0.0793 
    127 H127      -80.8323   26.3917  -72.6047 H         1 UNK         0.2896 
@<TRIPOS>BOND
     1    1    2 1    
     2    1   67 1    
     3    1   68 1    
     4    1   69 1    
     5    2    3 2    
     6    2    4 am   BACKBONE|DICT|INTERRES
     7    4    5 1    
     8    4   70 1    
     9    5    6 1    
    10    5   65 1    
    11    5   71 1    
    12    6    7 1    
    13    6   72 1    
    14    6   73 1    
    15    7    8 1    
    16    8    9 1    
    17    8   74 1    
    18    8   75 1    
    19    9   10 ar   
    20    9   14 ar   
    21   10   11 ar   
    22   10   76 1    
    23   11   12 ar   
    24   11   48 1    
    25   12   13 ar   
    26   12   77 1    
    27   13   14 ar   
    28   13   15 1    
    29   14   78 1    
    30   15   16 1    
    31   15   79 1    
    32   15   80 1    
    33   16   17 1    
    34   17   18 1    
    35   17   81 1    
    36   17   82 1    
    37   18   19 1    
    38   18   22 1    
    39   18   83 1    
    40   19   20 am   BACKBONE|DICT|INTERRES
    41   19   21 2    
    42   20   84 1    
    43   20   85 1    
    44   22   23 am   BACKBONE|DICT|INTERRES
    45   22   86 1    
    46   23   24 2    
    47   23   25 1    
    48   25   26 1    
    49   25   27 1    
    50   25   87 1    
    51   26   88 1    
    52   26   89 1    
    53   26   90 1    
    54   27   28 am   BACKBONE|DICT|INTERRES
    55   27   91 1    
    56   28   29 2    
    57   28   30 1    
    58   30   31 1    
    59   30   32 1    
    60   30   92 1    
    61   31   93 1    
    62   31   94 1    
    63   31   95 1    
    64   32   33 am   BACKBONE|DICT|INTERRES
    65   32   96 1    
    66   33   34 2    
    67   33   35 1    
    68   35   36 1    
    69   35   37 1    
    70   35   97 1    
    71   36   98 1    
    72   36   99 1    
    73   36  100 1    
    74   37   38 am   BACKBONE|DICT|INTERRES
    75   37  101 1    
    76   38   39 2    
    77   38   40 1    
    78   40   41 1    
    79   40   42 1    
    80   40  102 1    
    81   41  103 1    
    82   41  104 1    
    83   41  105 1    
    84   42   43 am   BACKBONE|DICT|INTERRES
    85   42  106 1    
    86   43   44 2    
    87   43   45 1    
    88   45   46 1    
    89   45   49 1    
    90   45  107 1    
    91   46   47 1    
    92   46  108 1    
    93   46  109 1    
    94   47   48 1    
    95   48  110 1    
    96   48  111 1    
    97   49   50 am   BACKBONE|DICT|INTERRES
    98   49  112 1    
    99   50   51 2    
   100   50   52 1    
   101   52   53 1    
   102   52   54 1    
   103   52  113 1    
   104   53  114 1    
   105   53  115 1    
   106   53  116 1    
   107   54   55 am   BACKBONE|DICT|INTERRES
   108   54  117 1    
   109   55   56 2    
   110   55   57 1    
   111   57   58 1    
   112   57   59 1    
   113   57  118 1    
   114   58  119 1    
   115   58  120 1    
   116   58  121 1    
   117   59   60 am   BACKBONE|DICT|INTERRES
   118   59  122 1    
   119   60   61 2    
   120   60   62 1    
   121   62   63 1    
   122   62   64 1    
   123   62  123 1    
   124   63  124 1    
   125   63  125 1    
   126   63  126 1    
   127   64   65 am   BACKBONE|DICT|INTERRES
   128   64  127 1    
   129   65   66 2    
@<TRIPOS>SUBSTRUCTURE
     1 UNK         1 GROUP             0       ****    0 ROOT    
