@<TRIPOS>MOLECULE
3R135
127   129    1
SMALL
USER_CHARGES


@<TRIPOS>ATOM
      1 CA        -84.0901   25.6218  -75.2592 C.3       0 UNK        -0.1998 
      2 C         -82.9894   26.4748  -74.6482 C.2       0 UNK         0.4909 
      3 O         -82.5290   27.4248  -75.2824 O.2       0 UNK        -0.5240 
      4 N         -82.5528   26.1366  -73.4263 N.am      1 UNK        -0.4739 
      5 CA        -81.4657   26.8018  -72.6961 C.3       1 UNK         0.0864 
      6 C6        -81.3251   26.2331  -71.2560 C.3       11 UNK        -0.0881 
      7 S7        -80.8417   27.3987  -69.9250 S.3       11 UNK        -0.2682 
      8 C8        -79.7390   28.6644  -70.6590 C.3       11 UNK         0.0289 
      9 C9        -78.2809   28.2544  -70.8904 C.ar      11 UNK        -0.0687 
     10 C10       -77.8419   26.9239  -70.8609 C.ar      11 UNK        -0.0823 
     11 C11       -76.4979   26.6026  -71.0815 C.ar      11 UNK        -0.0830 
     12 C12       -75.5790   27.6294  -71.3188 C.ar      11 UNK        -0.1021 
     13 C13       -75.9944   28.9643  -71.3322 C.ar      11 UNK        -0.0753 
     14 C14       -77.3443   29.2650  -71.1310 C.ar      11 UNK        -0.0933 
     15 C15       -74.9796   30.0890  -71.4852 C.3       11 UNK         0.0166 
     16 S16       -75.1117   30.9479  -73.0850 S.3       11 UNK        -0.2615 
     17 C17       -73.9521   32.3312  -72.8010 C.3       11 UNK        -0.0865 
     18 CA        -72.9065   32.5295  -73.9304 C.3       10 UNK         0.0862 
     19 C         -72.0491   33.7979  -73.6401 C.2       10 UNK         0.5551 
     20 N         -70.7714   33.6742  -73.3014 N.am      10 UNK        -0.7319 
     21 O         -72.5578   34.9132  -73.7226 O.2       10 UNK        -0.5018 
     22 N         -72.1391   31.3008  -74.2030 N.am      10 UNK        -0.4509 
     23 C         -71.3280   31.1094  -75.2514 C.2       10 UNK         0.4899 
     24 O         -71.1235   31.9544  -76.1231 O.2       10 UNK        -0.4839 
     25 CA        -70.6407   29.7371  -75.3720 C.3       9 UNK         0.0222 
     26 CB        -69.4904   29.5856  -74.3564 C.3       9 UNK        -0.1966 
     27 N         -71.5775   28.6063  -75.3261 N.am      9 UNK        -0.4218 
     28 C         -72.3161   28.1674  -74.2958 C.2       9 UNK         0.5020 
     29 O         -72.2557   28.6296  -73.1561 O.2       9 UNK        -0.5274 
     30 CA        -73.3253   27.0497  -74.5972 C.3       8 UNK         0.0270 
     31 CB        -74.7056   27.6528  -74.8909 C.3       8 UNK        -0.1976 
     32 N         -72.9497   26.2166  -75.7380 N.am      8 UNK        -0.4313 
     33 C         -72.0488   25.2282  -75.7187 C.2       8 UNK         0.5041 
     34 O         -71.3509   24.9593  -74.7396 O.2       8 UNK        -0.5577 
     35 CA        -71.9657   24.3727  -76.9998 C.3       7 UNK         0.0284 
     36 CB        -71.0486   23.1463  -76.8387 C.3       7 UNK        -0.1958 
     37 N         -73.3016   23.9178  -77.3972 N.am      7 UNK        -0.4454 
     38 C         -74.1963   24.6302  -78.0915 C.2       7 UNK         0.5089 
     39 O         -73.9533   25.7403  -78.5650 O.2       7 UNK        -0.5125 
     40 CA        -75.6188   24.0566  -78.1936 C.3       6 UNK         0.0408 
     41 CB        -75.6653   22.7543  -79.0165 C.3       6 UNK        -0.1791 
     42 N         -76.2690   23.9080  -76.8842 N.am      6 UNK        -0.4762 
     43 C         -75.9590   23.0702  -75.8814 C.2       6 UNK         0.5007 
     44 O         -75.0341   22.2573  -75.9281 O.2       6 UNK        -0.5032 
     45 CA        -76.8302   23.1392  -74.6112 C.3       5 UNK         0.0783 
     46 C46       -76.2887   24.2008  -73.6233 C.3       11 UNK        -0.0857 
     47 S47       -77.0192   23.9934  -71.9693 S.3       11 UNK        -0.2512 
     48 C48       -76.0231   25.1563  -70.9789 C.3       11 UNK         0.0225 
     49 N         -78.2478   23.3495  -74.9237 N.am      5 UNK        -0.4615 
     50 C         -79.0314   22.4644  -75.5561 C.2       4 UNK         0.5053 
     51 O         -78.6637   21.3388  -75.8932 O.2       4 UNK        -0.5105 
     52 CA        -80.4605   22.9187  -75.8888 C.3       4 UNK         0.0263 
     53 CB        -81.3915   22.7536  -74.6760 C.3       4 UNK        -0.1981 
     54 N         -80.4753   24.3081  -76.3496 N.am      4 UNK        -0.4224 
     55 C         -80.1961   24.6858  -77.6064 C.2       3 UNK         0.4895 
     56 O         -79.9944   23.8952  -78.5284 O.2       3 UNK        -0.5091 
     57 CA        -80.1209   26.1961  -77.8958 C.3       3 UNK         0.0250 
     58 CB        -81.4391   26.6966  -78.5078 C.3       3 UNK        -0.1996 
     59 N         -79.7949   26.9948  -76.7114 N.am      3 UNK        -0.4254 
     60 C         -78.5761   27.0390  -76.1516 C.2       2 UNK         0.5004 
     61 O         -77.6015   26.4367  -76.5984 O.2       2 UNK        -0.5226 
     62 CA        -78.4311   27.8330  -74.8403 C.3       2 UNK         0.0269 
     63 CB        -78.0444   29.2921  -75.1228 C.3       2 UNK        -0.1926 
     64 N         -79.6344   27.7971  -74.0064 N.am      2 UNK        -0.4687 
     65 C         -80.1545   26.6734  -73.4956 C.2       1 UNK         0.5165 
     66 O         -79.6770   25.5546  -73.6943 O.2       1 UNK        -0.5079 
     67 H67       -84.9333   26.2488  -75.5476 H         1 UNK         0.0900 
     68 H68       -83.7206   25.1158  -76.1507 H         1 UNK         0.0900 
     69 H69       -84.4531   24.8649  -74.5643 H         1 UNK         0.0900 
     70 H70       -82.9596   25.3351  -72.9659 H         1 UNK         0.2959 
     71 H71       -81.7519   27.8528  -72.6335 H         1 UNK         0.1079 
     72 H72       -80.6616   25.3662  -71.2279 H         1 UNK         0.0837 
     73 H73       -82.2897   25.8396  -70.9310 H         1 UNK         0.0837 
     74 H74       -79.7364   29.5026  -69.9605 H         1 UNK         0.0685 
     75 H75       -80.1628   29.0635  -71.5781 H         1 UNK         0.0685 
     76 H76       -78.5359   26.1224  -70.6601 H         1 UNK         0.1434 
     77 H77       -74.5324   27.3957  -71.4616 H         1 UNK         0.1329 
     78 H78       -77.6616   30.2991  -71.1414 H         1 UNK         0.1335 
     79 H79       -73.9639   29.7089  -71.3670 H         1 UNK         0.0680 
     80 H80       -75.1327   30.8085  -70.6794 H         1 UNK         0.0680 
     81 H81       -73.4391   32.1893  -71.8479 H         1 UNK         0.1032 
     82 H82       -74.5539   33.2345  -72.6811 H         1 UNK         0.1032 
     83 H83       -73.4604   32.7497  -74.8450 H         1 UNK         0.0461 
     84 H84       -70.2248   34.5007  -73.1175 H         1 UNK         0.3453 
     85 H85       -70.3498   32.7622  -73.2328 H         1 UNK         0.3453 
     86 H86       -72.2745   30.5234  -73.5629 H         1 UNK         0.2984 
     87 H87       -70.1937   29.6985  -76.3669 H         1 UNK         0.0554 
     88 H88       -68.7503   30.3757  -74.4895 H         1 UNK         0.0847 
     89 H89       -68.9741   28.6342  -74.4832 H         1 UNK         0.0847 
     90 H90       -69.8380   29.6414  -73.3247 H         1 UNK         0.0847 
     91 H91       -71.7379   28.1542  -76.2151 H         1 UNK         0.3141 
     92 H92       -73.4032   26.4147  -73.7121 H         1 UNK         0.0743 
     93 H93       -75.1001   28.1736  -74.0205 H         1 UNK         0.0784 
     94 H94       -75.4224   26.8799  -75.1594 H         1 UNK         0.0784 
     95 H95       -74.6709   28.3712  -75.7111 H         1 UNK         0.0784 
     96 H96       -73.4671   26.3544  -76.5996 H         1 UNK         0.3213 
     97 H97       -71.5484   25.0033  -77.7880 H         1 UNK         0.0855 
     98 H98       -71.4030   22.4786  -76.0523 H         1 UNK         0.0814 
     99 H99       -70.0331   23.4483  -76.5790 H         1 UNK         0.0814 
    100 H100      -70.9880   22.5726  -77.7636 H         1 UNK         0.0814 
    101 H101      -73.6502   23.0761  -76.9445 H         1 UNK         0.3105 
    102 H102      -76.2171   24.7957  -78.7292 H         1 UNK         0.0547 
    103 H103      -76.6900   22.4018  -79.1348 H         1 UNK         0.0837 
    104 H104      -75.0875   21.9508  -78.5598 H         1 UNK         0.0837 
    105 H105      -75.2603   22.9140  -80.0165 H         1 UNK         0.0837 
    106 H106      -76.9844   24.6083  -76.7024 H         1 UNK         0.3020 
    107 H107      -76.7454   22.1594  -74.1351 H         1 UNK         0.1245 
    108 H108      -76.5039   25.2089  -73.9779 H         1 UNK         0.0781 
    109 H109      -75.2035   24.1259  -73.5259 H         1 UNK         0.0781 
    110 H110      -74.9732   25.0653  -71.2614 H         1 UNK         0.0836 
    111 H111      -76.0825   24.8536  -69.9328 H         1 UNK         0.0836 
    112 H112      -78.6594   24.2173  -74.5904 H         1 UNK         0.3022 
    113 H113      -80.8388   22.2761  -76.6871 H         1 UNK         0.0747 
    114 H114      -82.4142   23.0393  -74.9202 H         1 UNK         0.0793 
    115 H115      -81.4171   21.7135  -74.3484 H         1 UNK         0.0793 
    116 H116      -81.0684   23.3513  -73.8238 H         1 UNK         0.0793 
    117 H117      -80.5581   25.0194  -75.6354 H         1 UNK         0.3047 
    118 H118      -79.3292   26.3459  -78.6335 H         1 UNK         0.0822 
    119 H119      -81.3830   27.7554  -78.7608 H         1 UNK         0.0807 
    120 H120      -82.2811   26.5579  -77.8297 H         1 UNK         0.0807 
    121 H121      -81.6709   26.1565  -79.4269 H         1 UNK         0.0807 
    122 H122      -80.5633   27.4759  -76.2565 H         1 UNK         0.2946 
    123 H123      -77.6268   27.3722  -74.2634 H         1 UNK         0.1144 
    124 H124      -77.8476   29.8340  -74.1975 H         1 UNK         0.0793 
    125 H125      -78.8281   29.8221  -75.6652 H         1 UNK         0.0793 
    126 H126      -77.1362   29.3459  -75.7245 H         1 UNK         0.0793 
    127 H127      -80.1084   28.6758  -73.8574 H         1 UNK         0.2896 
@<TRIPOS>BOND
     1    1    2 1    
     2    1   67 1    
     3    1   68 1    
     4    1   69 1    
     5    2    3 2    
     6    2    4 am   BACKBONE|DICT|INTERRES
     7    4    5 1    
     8    4   70 1    
     9    5    6 1    
    10    5   65 1    
    11    5   71 1    
    12    6    7 1    
    13    6   72 1    
    14    6   73 1    
    15    7    8 1    
    16    8    9 1    
    17    8   74 1    
    18    8   75 1    
    19    9   10 ar   
    20    9   14 ar   
    21   10   11 ar   
    22   10   76 1    
    23   11   12 ar   
    24   11   48 1    
    25   12   13 ar   
    26   12   77 1    
    27   13   14 ar   
    28   13   15 1    
    29   14   78 1    
    30   15   16 1    
    31   15   79 1    
    32   15   80 1    
    33   16   17 1    
    34   17   18 1    
    35   17   81 1    
    36   17   82 1    
    37   18   19 1    
    38   18   22 1    
    39   18   83 1    
    40   19   20 am   BACKBONE|DICT|INTERRES
    41   19   21 2    
    42   20   84 1    
    43   20   85 1    
    44   22   23 am   BACKBONE|DICT|INTERRES
    45   22   86 1    
    46   23   24 2    
    47   23   25 1    
    48   25   26 1    
    49   25   27 1    
    50   25   87 1    
    51   26   88 1    
    52   26   89 1    
    53   26   90 1    
    54   27   28 am   BACKBONE|DICT|INTERRES
    55   27   91 1    
    56   28   29 2    
    57   28   30 1    
    58   30   31 1    
    59   30   32 1    
    60   30   92 1    
    61   31   93 1    
    62   31   94 1    
    63   31   95 1    
    64   32   33 am   BACKBONE|DICT|INTERRES
    65   32   96 1    
    66   33   34 2    
    67   33   35 1    
    68   35   36 1    
    69   35   37 1    
    70   35   97 1    
    71   36   98 1    
    72   36   99 1    
    73   36  100 1    
    74   37   38 am   BACKBONE|DICT|INTERRES
    75   37  101 1    
    76   38   39 2    
    77   38   40 1    
    78   40   41 1    
    79   40   42 1    
    80   40  102 1    
    81   41  103 1    
    82   41  104 1    
    83   41  105 1    
    84   42   43 am   BACKBONE|DICT|INTERRES
    85   42  106 1    
    86   43   44 2    
    87   43   45 1    
    88   45   46 1    
    89   45   49 1    
    90   45  107 1    
    91   46   47 1    
    92   46  108 1    
    93   46  109 1    
    94   47   48 1    
    95   48  110 1    
    96   48  111 1    
    97   49   50 am   BACKBONE|DICT|INTERRES
    98   49  112 1    
    99   50   51 2    
   100   50   52 1    
   101   52   53 1    
   102   52   54 1    
   103   52  113 1    
   104   53  114 1    
   105   53  115 1    
   106   53  116 1    
   107   54   55 am   BACKBONE|DICT|INTERRES
   108   54  117 1    
   109   55   56 2    
   110   55   57 1    
   111   57   58 1    
   112   57   59 1    
   113   57  118 1    
   114   58  119 1    
   115   58  120 1    
   116   58  121 1    
   117   59   60 am   BACKBONE|DICT|INTERRES
   118   59  122 1    
   119   60   61 2    
   120   60   62 1    
   121   62   63 1    
   122   62   64 1    
   123   62  123 1    
   124   63  124 1    
   125   63  125 1    
   126   63  126 1    
   127   64   65 am   BACKBONE|DICT|INTERRES
   128   64  127 1    
   129   65   66 2    
@<TRIPOS>SUBSTRUCTURE
     1 UNK         1 GROUP             0       ****    0 ROOT    
