@<TRIPOS>MOLECULE
3R135
127   129    1
SMALL
USER_CHARGES


@<TRIPOS>ATOM
      1 CA        -79.8514   30.0818  -77.2439 C.3       0 UNK        -0.1998 
      2 C         -80.5992   29.5960  -76.0107 C.2       0 UNK         0.4909 
      3 O         -81.7987   29.8463  -75.8941 O.2       0 UNK        -0.5240 
      4 N         -79.8821   28.9253  -75.0973 N.am      1 UNK        -0.4739 
      5 CA        -80.3509   28.3179  -73.8448 C.3       1 UNK         0.0864 
      6 C6        -81.1137   29.3098  -72.9207 C.3       11 UNK        -0.0881 
      7 S7        -81.3412   28.7200  -71.2057 S.3       11 UNK        -0.2682 
      8 C8        -79.8606   29.3713  -70.3699 C.3       11 UNK         0.0289 
      9 C9        -78.6076   28.6284  -70.8062 C.ar      11 UNK        -0.0687 
     10 C10       -78.3783   27.3219  -70.3645 C.ar      11 UNK        -0.0823 
     11 C11       -77.2472   26.6129  -70.7811 C.ar      11 UNK        -0.0830 
     12 C12       -76.3306   27.2406  -71.6342 C.ar      11 UNK        -0.1021 
     13 C13       -76.5636   28.5354  -72.1063 C.ar      11 UNK        -0.0753 
     14 C14       -77.6945   29.2323  -71.6742 C.ar      11 UNK        -0.0933 
     15 C15       -75.6304   29.1659  -73.1268 C.3       11 UNK         0.0166 
     16 S16       -74.3745   30.2227  -72.3495 S.3       11 UNK        -0.2615 
     17 C17       -74.1761   31.5244  -73.6173 C.3       11 UNK        -0.0865 
     18 CA        -73.7351   31.0187  -75.0264 C.3       10 UNK         0.0862 
     19 C         -73.7389   32.1559  -76.0942 C.2       10 UNK         0.5551 
     20 N         -72.8608   32.1319  -77.0899 N.am      10 UNK        -0.7319 
     21 O         -74.5692   33.0601  -76.0405 O.2       10 UNK        -0.5018 
     22 N         -72.5090   30.1993  -75.0102 N.am      10 UNK        -0.4509 
     23 C         -71.2922   30.6004  -74.6139 C.2       10 UNK         0.4899 
     24 O         -71.0534   31.7260  -74.1735 O.2       10 UNK        -0.4839 
     25 CA        -70.1338   29.5932  -74.7781 C.3       9 UNK         0.0222 
     26 CB        -68.9883   29.8337  -73.7710 C.3       9 UNK        -0.1966 
     27 N         -70.5537   28.1858  -74.7715 N.am      9 UNK        -0.4218 
     28 C         -71.1173   27.4965  -73.7696 C.2       9 UNK         0.5020 
     29 O         -71.3624   27.9712  -72.6597 O.2       9 UNK        -0.5274 
     30 CA        -71.4619   26.0244  -74.0756 C.3       8 UNK         0.0270 
     31 CB        -72.1071   25.3050  -72.8751 C.3       8 UNK        -0.1976 
     32 N         -72.3324   25.8871  -75.2506 N.am      8 UNK        -0.4313 
     33 C         -71.9239   25.9705  -76.5271 C.2       8 UNK         0.5041 
     34 O         -70.7576   26.2200  -76.8379 O.2       8 UNK        -0.5577 
     35 CA        -72.9547   25.7593  -77.6531 C.3       7 UNK         0.0284 
     36 CB        -72.7794   24.3677  -78.2818 C.3       7 UNK        -0.1958 
     37 N         -74.3449   25.9171  -77.2273 N.am      7 UNK        -0.4454 
     38 C         -74.9189   27.0843  -76.9019 C.2       7 UNK         0.5089 
     39 O         -74.3460   28.1713  -76.9773 O.2       7 UNK        -0.5125 
     40 CA        -76.3640   27.0273  -76.3624 C.3       6 UNK         0.0408 
     41 CB        -77.3592   27.2964  -77.5009 C.3       6 UNK        -0.1791 
     42 N         -76.7188   25.7655  -75.6959 N.am      6 UNK        -0.4762 
     43 C         -76.0361   25.2102  -74.6782 C.2       6 UNK         0.5007 
     44 O         -75.0265   25.7202  -74.1986 O.2       6 UNK        -0.5032 
     45 CA        -76.4837   23.8243  -74.1637 C.3       5 UNK         0.0783 
     46 C46       -77.2593   23.9226  -72.8248 C.3       11 UNK        -0.0857 
     47 S47       -76.1305   24.0706  -71.3966 S.3       11 UNK        -0.2512 
     48 C48       -77.0416   25.1856  -70.2710 C.3       11 UNK         0.0225 
     49 N         -77.2112   23.0485  -75.1746 N.am      5 UNK        -0.4615 
     50 C         -76.6794   22.6433  -76.3400 C.2       4 UNK         0.5053 
     51 O         -75.5043   22.8400  -76.6515 O.2       4 UNK        -0.5105 
     52 CA        -77.6034   21.9415  -77.3526 C.3       4 UNK         0.0263 
     53 CB        -77.3842   20.4208  -77.3111 C.3       4 UNK        -0.1981 
     54 N         -79.0299   22.2259  -77.1748 N.am      4 UNK        -0.4224 
     55 C         -79.6010   23.4378  -77.2211 C.2       3 UNK         0.4895 
     56 O         -78.9806   24.4813  -77.4292 O.2       3 UNK        -0.5091 
     57 CA        -81.1112   23.5114  -76.9334 C.3       3 UNK         0.0250 
     58 CB        -81.8387   22.1494  -77.0135 C.3       3 UNK        -0.1996 
     59 N         -81.3813   24.1545  -75.6434 N.am      3 UNK        -0.4254 
     60 C         -80.9008   23.8117  -74.4395 C.2       2 UNK         0.5004 
     61 O         -80.0928   22.8987  -74.2523 O.2       2 UNK        -0.5226 
     62 CA        -81.3968   24.6567  -73.2510 C.3       2 UNK         0.0269 
     63 CB        -81.1159   23.9862  -71.8929 C.3       2 UNK        -0.1926 
     64 N         -80.8038   25.9946  -73.2430 N.am      2 UNK        -0.4687 
     65 C         -81.1109   26.9954  -74.0798 C.2       1 UNK         0.5165 
     66 O         -81.9505   26.8940  -74.9775 O.2       1 UNK        -0.5079 
     67 H67       -78.7718   30.0700  -77.0967 H         1 UNK         0.0900 
     68 H68       -80.1431   31.1043  -77.4830 H         1 UNK         0.0900 
     69 H69       -80.0895   29.4509  -78.0999 H         1 UNK         0.0900 
     70 H70       -78.9043   28.7662  -75.2904 H         1 UNK         0.2959 
     71 H71       -79.4264   28.0425  -73.3411 H         1 UNK         0.1079 
     72 H72       -80.5911   30.2669  -72.8907 H         1 UNK         0.0837 
     73 H73       -82.1026   29.5262  -73.3279 H         1 UNK         0.0837 
     74 H74       -79.7709   30.4422  -70.5590 H         1 UNK         0.0685 
     75 H75       -79.9868   29.2610  -69.2919 H         1 UNK         0.0685 
     76 H76       -79.0922   26.8555  -69.6986 H         1 UNK         0.1434 
     77 H77       -75.4398   26.7176  -71.9499 H         1 UNK         0.1329 
     78 H78       -77.8762   30.2353  -72.0359 H         1 UNK         0.1335 
     79 H79       -75.1221   28.3959  -73.7086 H         1 UNK         0.0680 
     80 H80       -76.2235   29.7472  -73.8341 H         1 UNK         0.0680 
     81 H81       -73.4639   32.2591  -73.2391 H         1 UNK         0.1032 
     82 H82       -75.1289   32.0527  -73.6860 H         1 UNK         0.1032 
     83 H83       -74.5115   30.3419  -75.3798 H         1 UNK         0.0461 
     84 H84       -72.8768   32.8647  -77.7816 H         1 UNK         0.3453 
     85 H85       -72.1896   31.3845  -77.1590 H         1 UNK         0.3453 
     86 H86       -72.6118   29.2664  -75.3833 H         1 UNK         0.2984 
     87 H87       -69.7294   29.7722  -75.7751 H         1 UNK         0.0554 
     88 H88       -68.1756   29.1220  -73.9149 H         1 UNK         0.0847 
     89 H89       -68.5653   30.8321  -73.8883 H         1 UNK         0.0847 
     90 H90       -69.3319   29.7478  -72.7396 H         1 UNK         0.0847 
     91 H91       -70.4199   27.6740  -75.6422 H         1 UNK         0.3141 
     92 H92       -70.5190   25.5154  -74.2871 H         1 UNK         0.0743 
     93 H93       -73.0179   25.8052  -72.5441 H         1 UNK         0.0784 
     94 H94       -72.3606   24.2725  -73.1157 H         1 UNK         0.0784 
     95 H95       -71.4256   25.2821  -72.0239 H         1 UNK         0.0784 
     96 H96       -73.3218   25.7552  -75.0520 H         1 UNK         0.3213 
     97 H97       -72.7509   26.5083  -78.4215 H         1 UNK         0.0855 
     98 H98       -71.7636   24.2329  -78.6563 H         1 UNK         0.0814 
     99 H99       -73.4559   24.2230  -79.1244 H         1 UNK         0.0814 
    100 H100      -72.9683   23.5724  -77.5595 H         1 UNK         0.0814 
    101 H101      -74.8819   25.0671  -77.1067 H         1 UNK         0.3105 
    102 H102      -76.4697   27.8229  -75.6243 H         1 UNK         0.0547 
    103 H103      -77.1665   28.2621  -77.9700 H         1 UNK         0.0837 
    104 H104      -77.2886   26.5376  -78.2813 H         1 UNK         0.0837 
    105 H105      -78.3884   27.3043  -77.1429 H         1 UNK         0.0837 
    106 H106      -77.5063   25.2579  -76.0864 H         1 UNK         0.3020 
    107 H107      -75.5636   23.2649  -73.9767 H         1 UNK         0.1245 
    108 H108      -77.8462   23.0173  -72.6618 H         1 UNK         0.0781 
    109 H109      -77.9754   24.7461  -72.8403 H         1 UNK         0.0781 
    110 H110      -76.4979   25.2374  -69.3270 H         1 UNK         0.0836 
    111 H111      -78.0044   24.7242  -70.0451 H         1 UNK         0.0836 
    112 H112      -78.1918   22.8625  -74.9849 H         1 UNK         0.3022 
    113 H113      -77.3218   22.3019  -78.3441 H         1 UNK         0.0747 
    114 H114      -77.9550   19.9149  -78.0901 H         1 UNK         0.0793 
    115 H115      -76.3336   20.1730  -77.4704 H         1 UNK         0.0793 
    116 H116      -77.6767   19.9974  -76.3493 H         1 UNK         0.0793 
    117 H117      -79.6212   21.4379  -76.9538 H         1 UNK         0.3047 
    118 H118      -81.5348   24.1601  -77.7017 H         1 UNK         0.0822 
    119 H119      -82.9163   22.2803  -76.9123 H         1 UNK         0.0807 
    120 H120      -81.5213   21.4603  -76.2298 H         1 UNK         0.0807 
    121 H121      -81.6688   21.6652  -77.9762 H         1 UNK         0.0807 
    122 H122      -81.9334   25.0061  -75.6837 H         1 UNK         0.2946 
    123 H123      -82.4802   24.7564  -73.3521 H         1 UNK         0.1144 
    124 H124      -81.5470   22.9848  -71.8564 H         1 UNK         0.0793 
    125 H125      -81.5536   24.5555  -71.0725 H         1 UNK         0.0793 
    126 H126      -80.0481   23.8871  -71.6980 H         1 UNK         0.0793 
    127 H127      -80.1185   26.1677  -72.5219 H         1 UNK         0.2896 
@<TRIPOS>BOND
     1    1    2 1    
     2    1   67 1    
     3    1   68 1    
     4    1   69 1    
     5    2    3 2    
     6    2    4 am   BACKBONE|DICT|INTERRES
     7    4    5 1    
     8    4   70 1    
     9    5    6 1    
    10    5   65 1    
    11    5   71 1    
    12    6    7 1    
    13    6   72 1    
    14    6   73 1    
    15    7    8 1    
    16    8    9 1    
    17    8   74 1    
    18    8   75 1    
    19    9   10 ar   
    20    9   14 ar   
    21   10   11 ar   
    22   10   76 1    
    23   11   12 ar   
    24   11   48 1    
    25   12   13 ar   
    26   12   77 1    
    27   13   14 ar   
    28   13   15 1    
    29   14   78 1    
    30   15   16 1    
    31   15   79 1    
    32   15   80 1    
    33   16   17 1    
    34   17   18 1    
    35   17   81 1    
    36   17   82 1    
    37   18   19 1    
    38   18   22 1    
    39   18   83 1    
    40   19   20 am   BACKBONE|DICT|INTERRES
    41   19   21 2    
    42   20   84 1    
    43   20   85 1    
    44   22   23 am   BACKBONE|DICT|INTERRES
    45   22   86 1    
    46   23   24 2    
    47   23   25 1    
    48   25   26 1    
    49   25   27 1    
    50   25   87 1    
    51   26   88 1    
    52   26   89 1    
    53   26   90 1    
    54   27   28 am   BACKBONE|DICT|INTERRES
    55   27   91 1    
    56   28   29 2    
    57   28   30 1    
    58   30   31 1    
    59   30   32 1    
    60   30   92 1    
    61   31   93 1    
    62   31   94 1    
    63   31   95 1    
    64   32   33 am   BACKBONE|DICT|INTERRES
    65   32   96 1    
    66   33   34 2    
    67   33   35 1    
    68   35   36 1    
    69   35   37 1    
    70   35   97 1    
    71   36   98 1    
    72   36   99 1    
    73   36  100 1    
    74   37   38 am   BACKBONE|DICT|INTERRES
    75   37  101 1    
    76   38   39 2    
    77   38   40 1    
    78   40   41 1    
    79   40   42 1    
    80   40  102 1    
    81   41  103 1    
    82   41  104 1    
    83   41  105 1    
    84   42   43 am   BACKBONE|DICT|INTERRES
    85   42  106 1    
    86   43   44 2    
    87   43   45 1    
    88   45   46 1    
    89   45   49 1    
    90   45  107 1    
    91   46   47 1    
    92   46  108 1    
    93   46  109 1    
    94   47   48 1    
    95   48  110 1    
    96   48  111 1    
    97   49   50 am   BACKBONE|DICT|INTERRES
    98   49  112 1    
    99   50   51 2    
   100   50   52 1    
   101   52   53 1    
   102   52   54 1    
   103   52  113 1    
   104   53  114 1    
   105   53  115 1    
   106   53  116 1    
   107   54   55 am   BACKBONE|DICT|INTERRES
   108   54  117 1    
   109   55   56 2    
   110   55   57 1    
   111   57   58 1    
   112   57   59 1    
   113   57  118 1    
   114   58  119 1    
   115   58  120 1    
   116   58  121 1    
   117   59   60 am   BACKBONE|DICT|INTERRES
   118   59  122 1    
   119   60   61 2    
   120   60   62 1    
   121   62   63 1    
   122   62   64 1    
   123   62  123 1    
   124   63  124 1    
   125   63  125 1    
   126   63  126 1    
   127   64   65 am   BACKBONE|DICT|INTERRES
   128   64  127 1    
   129   65   66 2    
@<TRIPOS>SUBSTRUCTURE
     1 UNK         1 GROUP             0       ****    0 ROOT    
