@<TRIPOS>MOLECULE
3R135
127   129    1
SMALL
USER_CHARGES


@<TRIPOS>ATOM
      1 CA        -84.3332   27.8222  -72.2564 C.3       0 UNK        -0.1998 
      2 C         -83.5411   28.4177  -73.4106 C.2       0 UNK         0.4909 
      3 O         -84.1313   28.8456  -74.4030 O.2       0 UNK        -0.5240 
      4 N         -82.2077   28.4482  -73.2880 N.am      1 UNK        -0.4739 
      5 CA        -81.2842   28.9902  -74.2965 C.3       1 UNK         0.0864 
      6 C6        -79.8764   29.2529  -73.7099 C.3       11 UNK        -0.0881 
      7 S7        -79.9061   30.3833  -72.2807 S.3       11 UNK        -0.2682 
      8 C8        -78.1217   30.5229  -71.9161 C.3       11 UNK         0.0289 
      9 C9        -77.4388   29.2537  -71.3978 C.ar      11 UNK        -0.0687 
     10 C10       -78.1491   28.1684  -70.8684 C.ar      11 UNK        -0.0823 
     11 C11       -77.4814   27.0428  -70.3780 C.ar      11 UNK        -0.0830 
     12 C12       -76.0829   27.0051  -70.4207 C.ar      11 UNK        -0.1021 
     13 C13       -75.3528   28.0837  -70.9329 C.ar      11 UNK        -0.0753 
     14 C14       -76.0422   29.2024  -71.4101 C.ar      11 UNK        -0.0933 
     15 C15       -73.8256   28.0606  -70.8918 C.3       11 UNK         0.0166 
     16 S16       -73.0319   28.2616  -72.5248 S.3       11 UNK        -0.2615 
     17 C17       -72.8757   30.0779  -72.6796 C.3       11 UNK        -0.0865 
     18 CA        -73.6025   30.6402  -73.9298 C.3       10 UNK         0.0862 
     19 C         -73.5738   32.1926  -73.9262 C.2       10 UNK         0.5551 
     20 N         -74.6565   32.8356  -73.5113 N.am      10 UNK        -0.7319 
     21 O         -72.5637   32.8135  -74.2516 O.2       10 UNK        -0.5018 
     22 N         -73.0276   30.0796  -75.1559 N.am      10 UNK        -0.4509 
     23 C         -73.5058   30.2171  -76.3960 C.2       10 UNK         0.4899 
     24 O         -74.5414   30.8260  -76.6650 O.2       10 UNK        -0.4839 
     25 CA        -72.7257   29.5337  -77.5373 C.3       9 UNK         0.0222 
     26 CB        -71.8602   30.5517  -78.3058 C.3       9 UNK        -0.1966 
     27 N         -71.9468   28.3510  -77.1320 N.am      9 UNK        -0.4218 
     28 C         -70.8533   28.2771  -76.3560 C.2       9 UNK         0.5020 
     29 O         -70.3004   29.2637  -75.8687 O.2       9 UNK        -0.5274 
     30 CA        -70.3375   26.8674  -76.0068 C.3       8 UNK         0.0270 
     31 CB        -69.4949   26.8569  -74.7167 C.3       8 UNK        -0.1976 
     32 N         -71.4515   25.9315  -75.8457 N.am      8 UNK        -0.4313 
     33 C         -71.9013   25.0894  -76.7837 C.2       8 UNK         0.5041 
     34 O         -71.3807   24.9539  -77.8910 O.2       8 UNK        -0.5577 
     35 CA        -73.1738   24.2986  -76.4439 C.3       7 UNK         0.0284 
     36 CB        -72.8222   22.9323  -75.8349 C.3       7 UNK        -0.1958 
     37 N         -74.0727   25.0146  -75.5351 N.am      7 UNK        -0.4454 
     38 C         -74.7768   26.1118  -75.8408 C.2       7 UNK         0.5089 
     39 O         -74.7018   26.6850  -76.9287 O.2       7 UNK        -0.5125 
     40 CA        -75.7281   26.6369  -74.7467 C.3       6 UNK         0.0408 
     41 CB        -76.5963   27.8153  -75.2194 C.3       6 UNK        -0.1791 
     42 N         -76.5984   25.5855  -74.2162 N.am      6 UNK        -0.4762 
     43 C         -76.2387   24.6548  -73.3198 C.2       6 UNK         0.5007 
     44 O         -75.0993   24.5591  -72.8610 O.2       6 UNK        -0.5032 
     45 CA        -77.3031   23.6170  -72.9315 C.3       5 UNK         0.0783 
     46 C46       -78.3857   24.2110  -71.9971 C.3       11 UNK        -0.0857 
     47 S47       -77.8115   24.2450  -70.2666 S.3       11 UNK        -0.2512 
     48 C48       -78.2853   25.9195  -69.7275 C.3       11 UNK         0.0225 
     49 N         -77.8780   23.0361  -74.1459 N.am      5 UNK        -0.4615 
     50 C         -77.5457   21.8359  -74.6438 C.2       4 UNK         0.5053 
     51 O         -76.7896   21.0443  -74.0803 O.2       4 UNK        -0.5105 
     52 CA        -78.1492   21.4423  -76.0059 C.3       4 UNK         0.0263 
     53 CB        -79.4479   20.6443  -75.8074 C.3       4 UNK        -0.1981 
     54 N         -78.4192   22.5951  -76.8660 N.am      4 UNK        -0.4224 
     55 C         -77.4805   23.3983  -77.3868 C.2       3 UNK         0.4895 
     56 O         -76.2751   23.1625  -77.3258 O.2       3 UNK        -0.5091 
     57 CA        -77.9586   24.6949  -78.0697 C.3       3 UNK         0.0250 
     58 CB        -77.8085   24.5855  -79.5956 C.3       3 UNK        -0.1996 
     59 N         -79.3387   25.0869  -77.7483 N.am      3 UNK        -0.4254 
     60 C         -79.7885   25.4088  -76.5278 C.2       2 UNK         0.5004 
     61 O         -79.0987   25.3592  -75.5051 O.2       2 UNK        -0.5226 
     62 CA        -81.2764   25.7700  -76.4170 C.3       2 UNK         0.0269 
     63 CB        -82.0984   24.5243  -76.0483 C.3       2 UNK        -0.1926 
     64 N         -81.4798   26.7935  -75.3940 N.am      2 UNK        -0.4687 
     65 C         -81.1606   28.0868  -75.5416 C.2       1 UNK         0.5165 
     66 O         -80.7653   28.5718  -76.6030 O.2       1 UNK        -0.5079 
     67 H67       -84.9121   26.9658  -72.6012 H         1 UNK         0.0900 
     68 H68       -85.0250   28.5624  -71.8554 H         1 UNK         0.0900 
     69 H69       -83.6855   27.4897  -71.4454 H         1 UNK         0.0900 
     70 H70       -81.7773   28.1122  -72.4384 H         1 UNK         0.2959 
     71 H71       -81.6897   29.9442  -74.6416 H         1 UNK         0.1079 
     72 H72       -79.4101   28.3130  -73.4086 H         1 UNK         0.0837 
     73 H73       -79.2248   29.6913  -74.4689 H         1 UNK         0.0837 
     74 H74       -77.6154   30.8659  -72.8197 H         1 UNK         0.0685 
     75 H75       -77.9893   31.3086  -71.1712 H         1 UNK         0.0685 
     76 H76       -79.2271   28.2035  -70.8087 H         1 UNK         0.1434 
     77 H77       -75.5619   26.1433  -70.0264 H         1 UNK         0.1329 
     78 H78       -75.4908   30.0539  -71.7745 H         1 UNK         0.1335 
     79 H79       -73.4683   28.8275  -70.2036 H         1 UNK         0.0680 
     80 H80       -73.4815   27.1105  -70.4801 H         1 UNK         0.0680 
     81 H81       -73.2468   30.5555  -71.7715 H         1 UNK         0.1032 
     82 H82       -71.8122   30.3222  -72.7208 H         1 UNK         0.1032 
     83 H83       -74.6448   30.3179  -73.8994 H         1 UNK         0.0461 
     84 H84       -75.4929   32.3412  -73.2479 H         1 UNK         0.3453 
     85 H85       -74.6448   33.8435  -73.4883 H         1 UNK         0.3453 
     86 H86       -72.1204   29.6402  -75.0592 H         1 UNK         0.2984 
     87 H87       -73.4770   29.1544  -78.2318 H         1 UNK         0.0554 
     88 H88       -71.3463   30.0837  -79.1453 H         1 UNK         0.0847 
     89 H89       -71.1085   31.0153  -77.6664 H         1 UNK         0.0847 
     90 H90       -72.4763   31.3557  -78.7103 H         1 UNK         0.0847 
     91 H91       -72.3519   27.4713  -77.4258 H         1 UNK         0.3141 
     92 H92       -69.6946   26.5489  -76.8299 H         1 UNK         0.0743 
     93 H93       -70.0635   27.2217  -73.8600 H         1 UNK         0.0784 
     94 H94       -69.1421   25.8524  -74.4822 H         1 UNK         0.0784 
     95 H95       -68.6129   27.4909  -74.8179 H         1 UNK         0.0784 
     96 H96       -71.9678   25.9913  -74.9789 H         1 UNK         0.3213 
     97 H97       -73.7117   24.1284  -77.3791 H         1 UNK         0.0855 
     98 H98       -72.3078   23.0345  -74.8786 H         1 UNK         0.0814 
     99 H99       -72.1691   22.3653  -76.4998 H         1 UNK         0.0814 
    100 H100      -73.7182   22.3318  -75.6734 H         1 UNK         0.0814 
    101 H101      -74.2121   24.6233  -74.6080 H         1 UNK         0.3105 
    102 H102      -75.1054   27.0034  -73.9322 H         1 UNK         0.0547 
    103 H103      -77.2865   27.5205  -76.0105 H         1 UNK         0.0837 
    104 H104      -77.1779   28.2228  -74.3941 H         1 UNK         0.0837 
    105 H105      -75.9809   28.6275  -75.6061 H         1 UNK         0.0837 
    106 H106      -77.5404   25.5543  -74.6026 H         1 UNK         0.3020 
    107 H107      -76.7838   22.8298  -72.3793 H         1 UNK         0.1245 
    108 H108      -78.7067   25.2027  -72.3233 H         1 UNK         0.0781 
    109 H109      -79.2806   23.5870  -72.0190 H         1 UNK         0.0781 
    110 H110      -79.3541   26.0497  -69.9050 H         1 UNK         0.0836 
    111 H111      -78.1478   25.9844  -68.6474 H         1 UNK         0.0836 
    112 H112      -78.4706   23.6507  -74.6939 H         1 UNK         0.3022 
    113 H113      -77.4255   20.8027  -76.5159 H         1 UNK         0.0747 
    114 H114      -79.8491   20.2950  -76.7590 H         1 UNK         0.0793 
    115 H115      -79.2725   19.7628  -75.1890 H         1 UNK         0.0793 
    116 H116      -80.2180   21.2396  -75.3149 H         1 UNK         0.0793 
    117 H117      -79.3862   22.8533  -76.9914 H         1 UNK         0.3047 
    118 H118      -77.3018   25.4942  -77.7196 H         1 UNK         0.0822 
    119 H119      -78.0462   25.5290  -80.0873 H         1 UNK         0.0807 
    120 H120      -78.4582   23.8143  -80.0115 H         1 UNK         0.0807 
    121 H121      -76.7835   24.3310  -79.8697 H         1 UNK         0.0807 
    122 H122      -79.9797   25.1315  -78.5281 H         1 UNK         0.2946 
    123 H123      -81.6266   26.1585  -77.3764 H         1 UNK         0.1144 
    124 H124      -83.1591   24.7615  -75.9620 H         1 UNK         0.0793 
    125 H125      -81.7743   24.0905  -75.1010 H         1 UNK         0.0793 
    126 H126      -82.0035   23.7506  -76.8113 H         1 UNK         0.0793 
    127 H127      -81.7682   26.4766  -74.4804 H         1 UNK         0.2896 
@<TRIPOS>BOND
     1    1    2 1    
     2    1   67 1    
     3    1   68 1    
     4    1   69 1    
     5    2    3 2    
     6    2    4 am   BACKBONE|DICT|INTERRES
     7    4    5 1    
     8    4   70 1    
     9    5    6 1    
    10    5   65 1    
    11    5   71 1    
    12    6    7 1    
    13    6   72 1    
    14    6   73 1    
    15    7    8 1    
    16    8    9 1    
    17    8   74 1    
    18    8   75 1    
    19    9   10 ar   
    20    9   14 ar   
    21   10   11 ar   
    22   10   76 1    
    23   11   12 ar   
    24   11   48 1    
    25   12   13 ar   
    26   12   77 1    
    27   13   14 ar   
    28   13   15 1    
    29   14   78 1    
    30   15   16 1    
    31   15   79 1    
    32   15   80 1    
    33   16   17 1    
    34   17   18 1    
    35   17   81 1    
    36   17   82 1    
    37   18   19 1    
    38   18   22 1    
    39   18   83 1    
    40   19   20 am   BACKBONE|DICT|INTERRES
    41   19   21 2    
    42   20   84 1    
    43   20   85 1    
    44   22   23 am   BACKBONE|DICT|INTERRES
    45   22   86 1    
    46   23   24 2    
    47   23   25 1    
    48   25   26 1    
    49   25   27 1    
    50   25   87 1    
    51   26   88 1    
    52   26   89 1    
    53   26   90 1    
    54   27   28 am   BACKBONE|DICT|INTERRES
    55   27   91 1    
    56   28   29 2    
    57   28   30 1    
    58   30   31 1    
    59   30   32 1    
    60   30   92 1    
    61   31   93 1    
    62   31   94 1    
    63   31   95 1    
    64   32   33 am   BACKBONE|DICT|INTERRES
    65   32   96 1    
    66   33   34 2    
    67   33   35 1    
    68   35   36 1    
    69   35   37 1    
    70   35   97 1    
    71   36   98 1    
    72   36   99 1    
    73   36  100 1    
    74   37   38 am   BACKBONE|DICT|INTERRES
    75   37  101 1    
    76   38   39 2    
    77   38   40 1    
    78   40   41 1    
    79   40   42 1    
    80   40  102 1    
    81   41  103 1    
    82   41  104 1    
    83   41  105 1    
    84   42   43 am   BACKBONE|DICT|INTERRES
    85   42  106 1    
    86   43   44 2    
    87   43   45 1    
    88   45   46 1    
    89   45   49 1    
    90   45  107 1    
    91   46   47 1    
    92   46  108 1    
    93   46  109 1    
    94   47   48 1    
    95   48  110 1    
    96   48  111 1    
    97   49   50 am   BACKBONE|DICT|INTERRES
    98   49  112 1    
    99   50   51 2    
   100   50   52 1    
   101   52   53 1    
   102   52   54 1    
   103   52  113 1    
   104   53  114 1    
   105   53  115 1    
   106   53  116 1    
   107   54   55 am   BACKBONE|DICT|INTERRES
   108   54  117 1    
   109   55   56 2    
   110   55   57 1    
   111   57   58 1    
   112   57   59 1    
   113   57  118 1    
   114   58  119 1    
   115   58  120 1    
   116   58  121 1    
   117   59   60 am   BACKBONE|DICT|INTERRES
   118   59  122 1    
   119   60   61 2    
   120   60   62 1    
   121   62   63 1    
   122   62   64 1    
   123   62  123 1    
   124   63  124 1    
   125   63  125 1    
   126   63  126 1    
   127   64   65 am   BACKBONE|DICT|INTERRES
   128   64  127 1    
   129   65   66 2    
@<TRIPOS>SUBSTRUCTURE
     1 UNK         1 GROUP             0       ****    0 ROOT    
