@<TRIPOS>MOLECULE
3R135
127   129    1
SMALL
USER_CHARGES


@<TRIPOS>ATOM
      1 CA        -80.8731   23.9138  -72.4014 C.3       0 UNK        -0.1998 
      2 C         -80.5976   25.1021  -73.3072 C.2       0 UNK         0.4909 
      3 O         -79.7160   25.0294  -74.1663 O.2       0 UNK        -0.5240 
      4 N         -81.3644   26.1883  -73.1403 N.am      1 UNK        -0.4739 
      5 CA        -81.2536   27.4553  -73.8831 C.3       1 UNK         0.0864 
      6 C6        -79.9212   28.2010  -73.5802 C.3       11 UNK        -0.0881 
      7 S7        -80.1699   29.9440  -73.0992 S.3       11 UNK        -0.2682 
      8 C8        -80.1471   29.8488  -71.2747 C.3       11 UNK         0.0289 
      9 C9        -78.8305   29.3022  -70.7369 C.ar      11 UNK        -0.0687 
     10 C10       -78.7823   28.0322  -70.1493 C.ar      11 UNK        -0.0823 
     11 C11       -77.5631   27.4941  -69.7276 C.ar      11 UNK        -0.0830 
     12 C12       -76.3975   28.2563  -69.8470 C.ar      11 UNK        -0.1021 
     13 C13       -76.4309   29.5178  -70.4453 C.ar      11 UNK        -0.0753 
     14 C14       -77.6522   30.0436  -70.8758 C.ar      11 UNK        -0.0933 
     15 C15       -75.1325   30.2720  -70.6798 C.3       11 UNK         0.0166 
     16 S16       -74.2502   29.5807  -72.1162 S.3       11 UNK        -0.2615 
     17 C17       -72.6603   30.4728  -72.0325 C.3       11 UNK        -0.0865 
     18 CA        -72.3976   31.3581  -73.2781 C.3       10 UNK         0.0862 
     19 C         -71.0951   32.1823  -73.0744 C.2       10 UNK         0.5551 
     20 N         -71.2123   33.4360  -72.6586 N.am      10 UNK        -0.7319 
     21 O         -69.9858   31.6787  -73.2389 O.2       10 UNK        -0.5018 
     22 N         -72.3911   30.5521  -74.5101 N.am      10 UNK        -0.4509 
     23 C         -72.2056   31.0094  -75.7559 C.2       10 UNK         0.4899 
     24 O         -72.0707   32.2032  -76.0292 O.2       10 UNK        -0.4839 
     25 CA        -72.2196   29.9780  -76.9052 C.3       9 UNK         0.0222 
     26 CB        -71.1707   30.2984  -77.9916 C.3       9 UNK        -0.1966 
     27 N         -72.1302   28.5721  -76.4828 N.am      9 UNK        -0.4218 
     28 C         -71.0970   27.9515  -75.8883 C.2       9 UNK         0.5020 
     29 O         -70.0367   28.5086  -75.6033 O.2       9 UNK        -0.5274 
     30 CA        -71.2681   26.4648  -75.5184 C.3       8 UNK         0.0270 
     31 CB        -71.3825   26.3063  -73.9922 C.3       8 UNK        -0.1976 
     32 N         -72.4276   25.8361  -76.1597 N.am      8 UNK        -0.4313 
     33 C         -72.4467   25.4064  -77.4314 C.2       8 UNK         0.5041 
     34 O         -71.4576   25.4236  -78.1655 O.2       8 UNK        -0.5577 
     35 CA        -73.7835   24.8874  -78.0036 C.3       7 UNK         0.0284 
     36 CB        -73.8235   23.3515  -77.9572 C.3       7 UNK        -0.1958 
     37 N         -74.9825   25.4107  -77.3427 N.am      7 UNK        -0.4454 
     38 C         -75.2997   26.7046  -77.1986 C.2       7 UNK         0.5089 
     39 O         -74.6423   27.6297  -77.6744 O.2       7 UNK        -0.5125 
     40 CA        -76.5117   27.0278  -76.3087 C.3       6 UNK         0.0408 
     41 CB        -77.7823   27.1258  -77.1644 C.3       6 UNK        -0.1791 
     42 N         -76.7268   26.0834  -75.2032 N.am      6 UNK        -0.4762 
     43 C         -75.8166   25.7352  -74.2759 C.2       6 UNK         0.5007 
     44 O         -74.6445   26.1095  -74.2909 O.2       6 UNK        -0.5032 
     45 CA        -76.2989   24.8210  -73.1372 C.3       5 UNK         0.0783 
     46 C46       -76.8975   25.7058  -72.0243 C.3       11 UNK        -0.0857 
     47 S47       -77.5926   24.8199  -70.5867 S.3       11 UNK        -0.2512 
     48 C48       -77.4773   26.0538  -69.2335 C.3       11 UNK         0.0225 
     49 N         -77.2278   23.8191  -73.6648 N.am      5 UNK        -0.4615 
     50 C         -76.8351   22.6262  -74.1250 C.2       4 UNK         0.5053 
     51 O         -75.6843   22.1982  -74.0272 O.2       4 UNK        -0.5105 
     52 CA        -77.8890   21.7669  -74.8429 C.3       4 UNK         0.0263 
     53 CB        -78.7216   20.9640  -73.8311 C.3       4 UNK        -0.1981 
     54 N         -78.7787   22.4981  -75.7546 N.am      4 UNK        -0.4224 
     55 C         -78.3723   23.2213  -76.8095 C.2       3 UNK         0.4895 
     56 O         -77.1987   23.5142  -77.0391 O.2       3 UNK        -0.5091 
     57 CA        -79.4533   23.6442  -77.8099 C.3       3 UNK         0.0250 
     58 CB        -80.0578   22.4009  -78.4998 C.3       3 UNK        -0.1996 
     59 N         -80.4974   24.4746  -77.1979 N.am      3 UNK        -0.4254 
     60 C         -81.3933   25.1762  -77.9130 C.2       2 UNK         0.5004 
     61 O         -81.3649   25.2591  -79.1418 O.2       2 UNK        -0.5226 
     62 CA        -82.5391   25.8835  -77.1681 C.3       2 UNK         0.0269 
     63 CB        -83.8017   25.0057  -77.1865 C.3       2 UNK        -0.1926 
     64 N         -82.2177   26.2188  -75.7830 N.am      2 UNK        -0.4687 
     65 C         -81.5419   27.3104  -75.3984 C.2       1 UNK         0.5165 
     66 O         -81.1667   28.1799  -76.1861 O.2       1 UNK        -0.5079 
     67 H67       -81.2842   23.0883  -72.9811 H         1 UNK         0.0900 
     68 H68       -79.9508   23.5783  -71.9299 H         1 UNK         0.0900 
     69 H69       -81.5816   24.1609  -71.6112 H         1 UNK         0.0900 
     70 H70       -82.0873   26.1713  -72.4336 H         1 UNK         0.2959 
     71 H71       -82.0801   28.0614  -73.5087 H         1 UNK         0.1079 
     72 H72       -79.2275   28.1691  -74.4213 H         1 UNK         0.0837 
     73 H73       -79.3858   27.7019  -72.7784 H         1 UNK         0.0837 
     74 H74       -80.3139   30.8465  -70.8666 H         1 UNK         0.0685 
     75 H75       -80.9867   29.2367  -70.9413 H         1 UNK         0.0685 
     76 H76       -79.6821   27.4369  -70.0730 H         1 UNK         0.1434 
     77 H77       -75.4472   27.8386  -69.5429 H         1 UNK         0.1329 
     78 H78       -77.6833   31.0118  -71.3568 H         1 UNK         0.1335 
     79 H79       -74.5040   30.1992  -69.7907 H         1 UNK         0.0680 
     80 H80       -75.3238   31.3335  -70.8454 H         1 UNK         0.0680 
     81 H81       -71.8631   29.7358  -71.9150 H         1 UNK         0.1032 
     82 H82       -72.6387   31.0803  -71.1255 H         1 UNK         0.1032 
     83 H83       -73.2286   32.0599  -73.3734 H         1 UNK         0.0461 
     84 H84       -72.1178   33.8546  -72.5120 H         1 UNK         0.3453 
     85 H85       -70.3784   33.9809  -72.5035 H         1 UNK         0.3453 
     86 H86       -72.5061   29.5586  -74.3823 H         1 UNK         0.2984 
     87 H87       -73.2019   30.0753  -77.3693 H         1 UNK         0.0554 
     88 H88       -71.3448   31.2829  -78.4274 H         1 UNK         0.0847 
     89 H89       -71.2094   29.5752  -78.8062 H         1 UNK         0.0847 
     90 H90       -70.1572   30.2986  -77.5896 H         1 UNK         0.0847 
     91 H91       -72.9553   28.0209  -76.7015 H         1 UNK         0.3141 
     92 H92       -70.3657   25.9421  -75.8429 H         1 UNK         0.0743 
     93 H93       -71.5140   25.2621  -73.7081 H         1 UNK         0.0784 
     94 H94       -70.4804   26.6658  -73.4953 H         1 UNK         0.0784 
     95 H95       -72.2211   26.8734  -73.5864 H         1 UNK         0.0784 
     96 H96       -73.2839   25.8053  -75.6097 H         1 UNK         0.3213 
     97 H97       -73.8284   25.2016  -79.0483 H         1 UNK         0.0855 
     98 H98       -73.8298   22.9807  -76.9312 H         1 UNK         0.0814 
     99 H99       -72.9548   22.9203  -78.4569 H         1 UNK         0.0814 
    100 H100      -74.7105   22.9626  -78.4578 H         1 UNK         0.0814 
    101 H101      -75.6332   24.7241  -76.9695 H         1 UNK         0.3105 
    102 H102      -76.3319   28.0045  -75.8552 H         1 UNK         0.0547 
    103 H103      -77.6836   27.9082  -77.9179 H         1 UNK         0.0837 
    104 H104      -78.6559   27.3671  -76.5629 H         1 UNK         0.0837 
    105 H105      -77.9851   26.1954  -77.6918 H         1 UNK         0.0837 
    106 H106      -77.6614   25.7084  -75.1073 H         1 UNK         0.3020 
    107 H107      -75.4197   24.3222  -72.7222 H         1 UNK         0.1245 
    108 H108      -77.6831   26.3456  -72.4235 H         1 UNK         0.0781 
    109 H109      -76.1086   26.3695  -71.6697 H         1 UNK         0.0781 
    110 H110      -76.5404   25.8943  -68.6976 H         1 UNK         0.0836 
    111 H111      -78.2728   25.8651  -68.5114 H         1 UNK         0.0836 
    112 H112      -78.1901   24.1175  -73.8071 H         1 UNK         0.3022 
    113 H113      -77.3405   21.0499  -75.4577 H         1 UNK         0.0747 
    114 H114      -79.3906   20.2637  -74.3316 H         1 UNK         0.0793 
    115 H115      -78.0766   20.3785  -73.1742 H         1 UNK         0.0793 
    116 H116      -79.3247   21.6119  -73.1974 H         1 UNK         0.0793 
    117 H117      -79.7661   22.3184  -75.6518 H         1 UNK         0.3047 
    118 H118      -78.9539   24.2385  -78.5779 H         1 UNK         0.0822 
    119 H119      -80.6660   22.6748  -79.3617 H         1 UNK         0.0807 
    120 H120      -80.6866   21.8234  -77.8216 H         1 UNK         0.0807 
    121 H121      -79.2746   21.7357  -78.8667 H         1 UNK         0.0807 
    122 H122      -80.5074   24.5324  -76.1860 H         1 UNK         0.2946 
    123 H123      -82.7597   26.8045  -77.7135 H         1 UNK         0.1144 
    124 H124      -83.6497   24.0656  -76.6546 H         1 UNK         0.0793 
    125 H125      -84.0901   24.7580  -78.2092 H         1 UNK         0.0793 
    126 H126      -84.6482   25.5183  -76.7291 H         1 UNK         0.0793 
    127 H127      -82.4990   25.5598  -75.0716 H         1 UNK         0.2896 
@<TRIPOS>BOND
     1    1    2 1    
     2    1   67 1    
     3    1   68 1    
     4    1   69 1    
     5    2    3 2    
     6    2    4 am   BACKBONE|DICT|INTERRES
     7    4    5 1    
     8    4   70 1    
     9    5    6 1    
    10    5   65 1    
    11    5   71 1    
    12    6    7 1    
    13    6   72 1    
    14    6   73 1    
    15    7    8 1    
    16    8    9 1    
    17    8   74 1    
    18    8   75 1    
    19    9   10 ar   
    20    9   14 ar   
    21   10   11 ar   
    22   10   76 1    
    23   11   12 ar   
    24   11   48 1    
    25   12   13 ar   
    26   12   77 1    
    27   13   14 ar   
    28   13   15 1    
    29   14   78 1    
    30   15   16 1    
    31   15   79 1    
    32   15   80 1    
    33   16   17 1    
    34   17   18 1    
    35   17   81 1    
    36   17   82 1    
    37   18   19 1    
    38   18   22 1    
    39   18   83 1    
    40   19   20 am   BACKBONE|DICT|INTERRES
    41   19   21 2    
    42   20   84 1    
    43   20   85 1    
    44   22   23 am   BACKBONE|DICT|INTERRES
    45   22   86 1    
    46   23   24 2    
    47   23   25 1    
    48   25   26 1    
    49   25   27 1    
    50   25   87 1    
    51   26   88 1    
    52   26   89 1    
    53   26   90 1    
    54   27   28 am   BACKBONE|DICT|INTERRES
    55   27   91 1    
    56   28   29 2    
    57   28   30 1    
    58   30   31 1    
    59   30   32 1    
    60   30   92 1    
    61   31   93 1    
    62   31   94 1    
    63   31   95 1    
    64   32   33 am   BACKBONE|DICT|INTERRES
    65   32   96 1    
    66   33   34 2    
    67   33   35 1    
    68   35   36 1    
    69   35   37 1    
    70   35   97 1    
    71   36   98 1    
    72   36   99 1    
    73   36  100 1    
    74   37   38 am   BACKBONE|DICT|INTERRES
    75   37  101 1    
    76   38   39 2    
    77   38   40 1    
    78   40   41 1    
    79   40   42 1    
    80   40  102 1    
    81   41  103 1    
    82   41  104 1    
    83   41  105 1    
    84   42   43 am   BACKBONE|DICT|INTERRES
    85   42  106 1    
    86   43   44 2    
    87   43   45 1    
    88   45   46 1    
    89   45   49 1    
    90   45  107 1    
    91   46   47 1    
    92   46  108 1    
    93   46  109 1    
    94   47   48 1    
    95   48  110 1    
    96   48  111 1    
    97   49   50 am   BACKBONE|DICT|INTERRES
    98   49  112 1    
    99   50   51 2    
   100   50   52 1    
   101   52   53 1    
   102   52   54 1    
   103   52  113 1    
   104   53  114 1    
   105   53  115 1    
   106   53  116 1    
   107   54   55 am   BACKBONE|DICT|INTERRES
   108   54  117 1    
   109   55   56 2    
   110   55   57 1    
   111   57   58 1    
   112   57   59 1    
   113   57  118 1    
   114   58  119 1    
   115   58  120 1    
   116   58  121 1    
   117   59   60 am   BACKBONE|DICT|INTERRES
   118   59  122 1    
   119   60   61 2    
   120   60   62 1    
   121   62   63 1    
   122   62   64 1    
   123   62  123 1    
   124   63  124 1    
   125   63  125 1    
   126   63  126 1    
   127   64   65 am   BACKBONE|DICT|INTERRES
   128   64  127 1    
   129   65   66 2    
@<TRIPOS>SUBSTRUCTURE
     1 UNK         1 GROUP             0       ****    0 ROOT    
