@<TRIPOS>MOLECULE
3R135
127   129    1
SMALL
USER_CHARGES


@<TRIPOS>ATOM
      1 CA        -84.9317   26.4708  -72.8544 C.3       0 UNK        -0.1998 
      2 C         -83.9080   25.3392  -72.8673 C.2       0 UNK         0.4909 
      3 O         -84.2958   24.1725  -72.8647 O.2       0 UNK        -0.5240 
      4 N         -82.6013   25.6239  -72.8844 N.am      1 UNK        -0.4739 
      5 CA        -81.9755   26.9437  -72.9393 C.3       1 UNK         0.0864 
      6 C6        -81.7672   27.5344  -71.5216 C.3       11 UNK        -0.0881 
      7 S7        -81.5454   29.3460  -71.5428 S.3       11 UNK        -0.2682 
      8 C8        -80.1452   29.5714  -70.3994 C.3       11 UNK         0.0289 
      9 C9        -78.8203   29.1291  -71.0054 C.ar      11 UNK        -0.0687 
     10 C10       -78.2729   27.8853  -70.6795 C.ar      11 UNK        -0.0823 
     11 C11       -77.0466   27.4840  -71.2168 C.ar      11 UNK        -0.0830 
     12 C12       -76.3587   28.3406  -72.0816 C.ar      11 UNK        -0.1021 
     13 C13       -76.8876   29.5956  -72.4007 C.ar      11 UNK        -0.0753 
     14 C14       -78.1214   29.9802  -71.8659 C.ar      11 UNK        -0.0933 
     15 C15       -76.1348   30.5417  -73.3237 C.3       11 UNK         0.0166 
     16 S16       -75.2655   31.8375  -72.3885 S.3       11 UNK        -0.2615 
     17 C17       -73.7549   30.9658  -71.8498 C.3       11 UNK        -0.0865 
     18 CA        -72.5260   31.3797  -72.6971 C.3       10 UNK         0.0862 
     19 C         -71.2155   30.8091  -72.0949 C.2       10 UNK         0.5551 
     20 N         -70.5800   31.5412  -71.1908 N.am      10 UNK        -0.7319 
     21 O         -70.7930   29.6980  -72.4080 O.2       10 UNK        -0.5018 
     22 N         -72.6867   30.9817  -74.1014 N.am      10 UNK        -0.4509 
     23 C         -72.1158   31.5977  -75.1391 C.2       10 UNK         0.4899 
     24 O         -71.4265   32.6149  -75.0453 O.2       10 UNK        -0.4839 
     25 CA        -72.3298   30.9312  -76.5084 C.3       9 UNK         0.0222 
     26 CB        -72.0092   31.8757  -77.6822 C.3       9 UNK        -0.1966 
     27 N         -71.4928   29.7368  -76.6120 N.am      9 UNK        -0.4218 
     28 C         -71.7990   28.5356  -76.1084 C.2       9 UNK         0.5020 
     29 O         -72.8671   28.2676  -75.5496 O.2       9 UNK        -0.5274 
     30 CA        -70.7069   27.4697  -76.2132 C.3       8 UNK         0.0270 
     31 CB        -69.7467   27.5525  -75.0115 C.3       8 UNK        -0.1976 
     32 N         -71.3272   26.1501  -76.2707 N.am      8 UNK        -0.4313 
     33 C         -70.7569   25.0625  -76.7999 C.2       8 UNK         0.5041 
     34 O         -69.6236   25.0546  -77.2844 O.2       8 UNK        -0.5577 
     35 CA        -71.5636   23.7530  -76.7861 C.3       7 UNK         0.0284 
     36 CB        -71.1753   22.9023  -75.5655 C.3       7 UNK        -0.1958 
     37 N         -73.0202   23.9120  -76.8087 N.am      7 UNK        -0.4454 
     38 C         -73.7438   24.4395  -77.8020 C.2       7 UNK         0.5089 
     39 O         -73.2452   24.9885  -78.7849 O.2       7 UNK        -0.5125 
     40 CA        -75.2810   24.3118  -77.7258 C.3       6 UNK         0.0408 
     41 CB        -75.7496   23.0872  -78.5338 C.3       6 UNK        -0.1791 
     42 N         -75.9039   24.3032  -76.3910 N.am      6 UNK        -0.4762 
     43 C         -75.7444   23.4418  -75.3734 C.2       6 UNK         0.5007 
     44 O         -74.9023   22.5438  -75.3549 O.2       6 UNK        -0.5032 
     45 CA        -76.7114   23.5852  -74.1834 C.3       5 UNK         0.0783 
     46 C46       -76.3837   24.8304  -73.3265 C.3       11 UNK        -0.0857 
     47 S47       -77.2672   24.7758  -71.7347 S.3       11 UNK        -0.2512 
     48 C48       -76.4622   26.1338  -70.8327 C.3       11 UNK         0.0225 
     49 N         -78.1072   23.5661  -74.6300 N.am      5 UNK        -0.4615 
     50 C         -78.7230   22.5040  -75.1697 C.2       4 UNK         0.5053 
     51 O         -78.2047   21.3936  -75.2876 O.2       4 UNK        -0.5105 
     52 CA        -80.1574   22.7174  -75.6748 C.3       4 UNK         0.0263 
     53 CB        -81.1709   22.5471  -74.5311 C.3       4 UNK        -0.1981 
     54 N         -80.3071   24.0384  -76.2879 N.am      4 UNK        -0.4224 
     55 C         -79.9569   24.3200  -77.5518 C.2       3 UNK         0.4895 
     56 O         -79.5702   23.4735  -78.3580 O.2       3 UNK        -0.5091 
     57 CA        -80.0525   25.7872  -78.0084 C.3       3 UNK         0.0250 
     58 CB        -81.3724   26.0298  -78.7583 C.3       3 UNK        -0.1996 
     59 N         -79.9369   26.7554  -76.9156 N.am      3 UNK        -0.4254 
     60 C         -78.8155   26.9989  -76.2229 C.2       2 UNK         0.5004 
     61 O         -77.7389   26.4430  -76.4347 O.2       2 UNK        -0.5226 
     62 CA        -78.9316   28.0029  -75.0650 C.3       2 UNK         0.0269 
     63 CB        -78.7722   29.4367  -75.5941 C.3       2 UNK        -0.1926 
     64 N         -80.1870   27.9069  -74.3110 N.am      2 UNK        -0.4687 
     65 C         -80.6569   26.8002  -73.7200 C.2       1 UNK         0.5165 
     66 O         -80.1076   25.6970  -73.7993 O.2       1 UNK        -0.5079 
     67 H67       -85.9186   26.0878  -72.5950 H         1 UNK         0.0900 
     68 H68       -84.6767   27.2378  -72.1246 H         1 UNK         0.0900 
     69 H69       -85.0010   26.9325  -73.8389 H         1 UNK         0.0900 
     70 H70       -81.9285   24.8696  -72.9352 H         1 UNK         0.2959 
     71 H71       -82.6168   27.6083  -73.5218 H         1 UNK         0.1079 
     72 H72       -80.9365   27.0420  -71.0152 H         1 UNK         0.0837 
     73 H73       -82.6387   27.3364  -70.8965 H         1 UNK         0.0837 
     74 H74       -80.0825   30.6267  -70.1299 H         1 UNK         0.0685 
     75 H75       -80.3444   29.0349  -69.4703 H         1 UNK         0.0685 
     76 H76       -78.7979   27.2251  -70.0029 H         1 UNK         0.1434 
     77 H77       -75.4089   28.0341  -72.4981 H         1 UNK         0.1329 
     78 H78       -78.5336   30.9493  -72.1119 H         1 UNK         0.1335 
     79 H79       -75.4328   29.9959  -73.9558 H         1 UNK         0.0680 
     80 H80       -76.8366   31.0279  -74.0010 H         1 UNK         0.0680 
     81 H81       -73.5947   31.2159  -70.7993 H         1 UNK         0.1032 
     82 H82       -73.9040   29.8856  -71.8799 H         1 UNK         0.1032 
     83 H83       -72.4555   32.4693  -72.6607 H         1 UNK         0.0461 
     84 H84       -70.9221   32.4505  -70.9208 H         1 UNK         0.3453 
     85 H85       -69.7343   31.1814  -70.7764 H         1 UNK         0.3453 
     86 H86       -73.1374   30.0914  -74.2697 H         1 UNK         0.2984 
     87 H87       -73.3819   30.6478  -76.5872 H         1 UNK         0.0554 
     88 H88       -72.6159   32.7807  -77.6296 H         1 UNK         0.0847 
     89 H89       -72.2200   31.4017  -78.6410 H         1 UNK         0.0847 
     90 H90       -70.9631   32.1850  -77.6845 H         1 UNK         0.0847 
     91 H91       -70.5758   29.8702  -77.0148 H         1 UNK         0.3141 
     92 H92       -70.1492   27.6408  -77.1369 H         1 UNK         0.0743 
     93 H93       -70.2657   27.3620  -74.0710 H         1 UNK         0.0784 
     94 H94       -68.9344   26.8307  -75.0979 H         1 UNK         0.0784 
     95 H95       -69.2932   28.5418  -74.9360 H         1 UNK         0.0784 
     96 H96       -72.2792   26.1087  -75.9279 H         1 UNK         0.3213 
     97 H97       -71.2869   23.2000  -77.6863 H         1 UNK         0.0855 
     98 H98       -71.4586   23.3874  -74.6305 H         1 UNK         0.0814 
     99 H99       -70.0979   22.7331  -75.5325 H         1 UNK         0.0814 
    100 H100      -71.6546   21.9235  -75.5944 H         1 UNK         0.0814 
    101 H101      -73.5466   23.4221  -76.0874 H         1 UNK         0.3105 
    102 H102      -75.6820   25.1992  -78.2183 H         1 UNK         0.0547 
    103 H103      -75.3731   23.1246  -79.5569 H         1 UNK         0.0837 
    104 H104      -75.4007   22.1528  -78.0929 H         1 UNK         0.0837 
    105 H105      -76.8371   23.0437  -78.5916 H         1 UNK         0.0837 
    106 H106      -76.6093   25.0315  -76.2753 H         1 UNK         0.3020 
    107 H107      -76.5594   22.7010  -73.5594 H         1 UNK         0.1245 
    108 H108      -76.6462   25.7509  -73.8511 H         1 UNK         0.0781 
    109 H109      -75.3130   24.8828  -73.1185 H         1 UNK         0.0781 
    110 H110      -75.3845   26.1100  -71.0014 H         1 UNK         0.0836 
    111 H111      -76.6019   25.9731  -69.7627 H         1 UNK         0.0836 
    112 H112      -78.6351   24.4215  -74.4980 H         1 UNK         0.3022 
    113 H113      -80.3699   21.9522  -76.4249 H         1 UNK         0.0747 
    114 H114      -82.1892   22.7486  -74.8646 H         1 UNK         0.0793 
    115 H115      -81.1512   21.5256  -74.1494 H         1 UNK         0.0793 
    116 H116      -80.9542   23.2059  -73.6907 H         1 UNK         0.0793 
    117 H117      -80.5579   24.7979  -75.6678 H         1 UNK         0.3047 
    118 H118      -79.2270   25.9645  -78.7016 H         1 UNK         0.0822 
    119 H119      -81.4199   27.0412  -79.1626 H         1 UNK         0.0807 
    120 H120      -82.2383   25.8840  -78.1112 H         1 UNK         0.0807 
    121 H121      -81.4751   25.3424  -79.5993 H         1 UNK         0.0807 
    122 H122      -80.7720   27.2642  -76.6642 H         1 UNK         0.2946 
    123 H123      -78.1192   27.7932  -74.3665 H         1 UNK         0.1144 
    124 H124      -78.8648   30.1693  -74.7933 H         1 UNK         0.0793 
    125 H125      -79.5237   29.6767  -76.3474 H         1 UNK         0.0793 
    126 H126      -77.7925   29.5750  -76.0538 H         1 UNK         0.0793 
    127 H127      -80.6882   28.7726  -74.1686 H         1 UNK         0.2896 
@<TRIPOS>BOND
     1    1    2 1    
     2    1   67 1    
     3    1   68 1    
     4    1   69 1    
     5    2    3 2    
     6    2    4 am   BACKBONE|DICT|INTERRES
     7    4    5 1    
     8    4   70 1    
     9    5    6 1    
    10    5   65 1    
    11    5   71 1    
    12    6    7 1    
    13    6   72 1    
    14    6   73 1    
    15    7    8 1    
    16    8    9 1    
    17    8   74 1    
    18    8   75 1    
    19    9   10 ar   
    20    9   14 ar   
    21   10   11 ar   
    22   10   76 1    
    23   11   12 ar   
    24   11   48 1    
    25   12   13 ar   
    26   12   77 1    
    27   13   14 ar   
    28   13   15 1    
    29   14   78 1    
    30   15   16 1    
    31   15   79 1    
    32   15   80 1    
    33   16   17 1    
    34   17   18 1    
    35   17   81 1    
    36   17   82 1    
    37   18   19 1    
    38   18   22 1    
    39   18   83 1    
    40   19   20 am   BACKBONE|DICT|INTERRES
    41   19   21 2    
    42   20   84 1    
    43   20   85 1    
    44   22   23 am   BACKBONE|DICT|INTERRES
    45   22   86 1    
    46   23   24 2    
    47   23   25 1    
    48   25   26 1    
    49   25   27 1    
    50   25   87 1    
    51   26   88 1    
    52   26   89 1    
    53   26   90 1    
    54   27   28 am   BACKBONE|DICT|INTERRES
    55   27   91 1    
    56   28   29 2    
    57   28   30 1    
    58   30   31 1    
    59   30   32 1    
    60   30   92 1    
    61   31   93 1    
    62   31   94 1    
    63   31   95 1    
    64   32   33 am   BACKBONE|DICT|INTERRES
    65   32   96 1    
    66   33   34 2    
    67   33   35 1    
    68   35   36 1    
    69   35   37 1    
    70   35   97 1    
    71   36   98 1    
    72   36   99 1    
    73   36  100 1    
    74   37   38 am   BACKBONE|DICT|INTERRES
    75   37  101 1    
    76   38   39 2    
    77   38   40 1    
    78   40   41 1    
    79   40   42 1    
    80   40  102 1    
    81   41  103 1    
    82   41  104 1    
    83   41  105 1    
    84   42   43 am   BACKBONE|DICT|INTERRES
    85   42  106 1    
    86   43   44 2    
    87   43   45 1    
    88   45   46 1    
    89   45   49 1    
    90   45  107 1    
    91   46   47 1    
    92   46  108 1    
    93   46  109 1    
    94   47   48 1    
    95   48  110 1    
    96   48  111 1    
    97   49   50 am   BACKBONE|DICT|INTERRES
    98   49  112 1    
    99   50   51 2    
   100   50   52 1    
   101   52   53 1    
   102   52   54 1    
   103   52  113 1    
   104   53  114 1    
   105   53  115 1    
   106   53  116 1    
   107   54   55 am   BACKBONE|DICT|INTERRES
   108   54  117 1    
   109   55   56 2    
   110   55   57 1    
   111   57   58 1    
   112   57   59 1    
   113   57  118 1    
   114   58  119 1    
   115   58  120 1    
   116   58  121 1    
   117   59   60 am   BACKBONE|DICT|INTERRES
   118   59  122 1    
   119   60   61 2    
   120   60   62 1    
   121   62   63 1    
   122   62   64 1    
   123   62  123 1    
   124   63  124 1    
   125   63  125 1    
   126   63  126 1    
   127   64   65 am   BACKBONE|DICT|INTERRES
   128   64  127 1    
   129   65   66 2    
@<TRIPOS>SUBSTRUCTURE
     1 UNK         1 GROUP             0       ****    0 ROOT    
