@<TRIPOS>MOLECULE
3R135
127   129    1
SMALL
USER_CHARGES


@<TRIPOS>ATOM
      1 CA        -83.2090   31.1411  -77.0709 C.3       0 UNK        -0.1998 
      2 C         -81.8340   30.6091  -76.6954 C.2       0 UNK         0.4909 
      3 O         -80.8343   31.2999  -76.8954 O.2       0 UNK        -0.5240 
      4 N         -81.7757   29.3873  -76.1574 N.am      1 UNK        -0.4739 
      5 CA        -80.5473   28.7053  -75.7505 C.3       1 UNK         0.0864 
      6 C6        -79.9615   29.2327  -74.4076 C.3       11 UNK        -0.0881 
      7 S7        -81.0952   29.0572  -72.9864 S.3       11 UNK        -0.2682 
      8 C8        -80.1607   29.9180  -71.6812 C.3       11 UNK         0.0289 
      9 C9        -78.8554   29.2248  -71.2995 C.ar      11 UNK        -0.0687 
     10 C10       -78.8184   27.8516  -71.0307 C.ar      11 UNK        -0.0823 
     11 C11       -77.6311   27.2312  -70.6273 C.ar      11 UNK        -0.0830 
     12 C12       -76.4780   28.0087  -70.4633 C.ar      11 UNK        -0.1021 
     13 C13       -76.4964   29.3791  -70.7395 C.ar      11 UNK        -0.0753 
     14 C14       -77.6859   29.9783  -71.1630 C.ar      11 UNK        -0.0933 
     15 C15       -75.2434   30.2235  -70.5518 C.3       11 UNK         0.0166 
     16 S16       -74.1834   30.2073  -72.0317 S.3       11 UNK        -0.2615 
     17 C17       -73.3212   28.6102  -71.8381 C.3       11 UNK        -0.0865 
     18 CA        -71.9582   28.5838  -72.5724 C.3       10 UNK         0.0862 
     19 C         -71.1247   27.3402  -72.1513 C.2       10 UNK         0.5551 
     20 N         -70.4433   27.4157  -71.0159 N.am      10 UNK        -0.7319 
     21 O         -71.1144   26.3042  -72.8122 O.2       10 UNK        -0.5018 
     22 N         -72.1420   28.7006  -74.0258 N.am      10 UNK        -0.4509 
     23 C         -71.1610   28.9089  -74.9130 C.2       10 UNK         0.4899 
     24 O         -69.9770   29.0579  -74.6071 O.2       10 UNK        -0.4839 
     25 CA        -71.5608   28.9859  -76.3990 C.3       9 UNK         0.0222 
     26 CB        -71.3725   27.6160  -77.0641 C.3       9 UNK        -0.1966 
     27 N         -72.9354   29.4479  -76.6218 N.am      9 UNK        -0.4218 
     28 C         -73.3830   30.6772  -76.3214 C.2       9 UNK         0.5020 
     29 O         -72.6607   31.5652  -75.8652 O.2       9 UNK        -0.5274 
     30 CA        -74.8685   31.0007  -76.5802 C.3       8 UNK         0.0270 
     31 CB        -75.0080   32.1371  -77.6086 C.3       8 UNK        -0.1976 
     32 N         -75.6814   29.8663  -77.0264 N.am      8 UNK        -0.4313 
     33 C         -76.0639   28.8346  -76.2642 C.2       8 UNK         0.5041 
     34 O         -75.7217   28.6888  -75.0916 O.2       8 UNK        -0.5577 
     35 CA        -76.9891   27.7870  -76.9116 C.3       7 UNK         0.0284 
     36 CB        -77.5167   28.1644  -78.3147 C.3       7 UNK        -0.1958 
     37 N         -76.3860   26.4568  -76.9329 N.am      7 UNK        -0.4454 
     38 C         -75.2099   26.0994  -77.4684 C.2       7 UNK         0.5089 
     39 O         -74.4655   26.8695  -78.0794 O.2       7 UNK        -0.5125 
     40 CA        -74.8142   24.6231  -77.2564 C.3       6 UNK         0.0408 
     41 CB        -73.3569   24.2990  -77.6424 C.3       6 UNK        -0.1791 
     42 N         -75.1153   24.1565  -75.8976 N.am      6 UNK        -0.4762 
     43 C         -74.6910   24.6960  -74.7409 C.2       6 UNK         0.5007 
     44 O         -73.8609   25.6027  -74.6817 O.2       6 UNK        -0.5032 
     45 CA        -75.2999   24.1566  -73.4279 C.3       5 UNK         0.0783 
     46 C46       -75.9888   25.2875  -72.6216 C.3       11 UNK        -0.0857 
     47 S47       -76.1233   24.8480  -70.8569 S.3       11 UNK        -0.2512 
     48 C48       -77.6334   25.7314  -70.3327 C.3       11 UNK         0.0225 
     49 N         -76.2375   23.0595  -73.6831 N.am      5 UNK        -0.4615 
     50 C         -75.9386   21.7568  -73.6236 C.2       4 UNK         0.5053 
     51 O         -74.8415   21.3182  -73.2789 O.2       4 UNK        -0.5105 
     52 CA        -77.0493   20.7726  -74.0381 C.3       4 UNK         0.0263 
     53 CB        -77.8224   20.2900  -72.8002 C.3       4 UNK        -0.1981 
     54 N         -77.9965   21.3315  -75.0101 N.am      4 UNK        -0.4224 
     55 C         -77.6877   21.6904  -76.2655 C.2       3 UNK         0.4895 
     56 O         -76.5695   21.5549  -76.7600 O.2       3 UNK        -0.5091 
     57 CA        -78.7947   22.3693  -77.0908 C.3       3 UNK         0.0250 
     58 CB        -79.6003   21.3226  -77.8766 C.3       3 UNK        -0.1996 
     59 N         -79.7070   23.1877  -76.2837 N.am      3 UNK        -0.4254 
     60 C         -79.3445   24.2852  -75.6063 C.2       2 UNK         0.5004 
     61 O         -78.1906   24.7209  -75.5686 O.2       2 UNK        -0.5226 
     62 CA        -80.4333   24.9672  -74.7698 C.3       2 UNK         0.0269 
     63 CB        -80.3191   24.5242  -73.3028 C.3       2 UNK        -0.1926 
     64 N         -80.3048   26.4222  -74.8369 N.am      2 UNK        -0.4687 
     65 C         -80.7764   27.1811  -75.8343 C.2       1 UNK         0.5165 
     66 O         -81.3855   26.7186  -76.8019 O.2       1 UNK        -0.5079 
     67 H67       -83.2499   31.3554  -78.1385 H         1 UNK         0.0900 
     68 H68       -83.4142   32.0642  -76.5294 H         1 UNK         0.0900 
     69 H69       -83.9997   30.4284  -76.8372 H         1 UNK         0.0900 
     70 H70       -82.6182   28.8374  -76.0532 H         1 UNK         0.2959 
     71 H71       -79.8074   28.9115  -76.5252 H         1 UNK         0.1079 
     72 H72       -79.0128   28.7442  -74.1767 H         1 UNK         0.0837 
     73 H73       -79.7169   30.2908  -74.5127 H         1 UNK         0.0837 
     74 H74       -79.9766   30.9437  -72.0049 H         1 UNK         0.0685 
     75 H75       -80.7884   29.9849  -70.7918 H         1 UNK         0.0685 
     76 H76       -79.7235   27.2674  -71.1257 H         1 UNK         0.1434 
     77 H77       -75.5617   27.5470  -70.1235 H         1 UNK         0.1329 
     78 H78       -77.7040   31.0407  -71.3646 H         1 UNK         0.1335 
     79 H79       -75.5232   31.2568  -70.3405 H         1 UNK         0.0680 
     80 H80       -74.6817   29.8835  -69.6806 H         1 UNK         0.0680 
     81 H81       -73.9669   27.8159  -72.2102 H         1 UNK         0.1032 
     82 H82       -73.1820   28.4192  -70.7724 H         1 UNK         0.1032 
     83 H83       -71.3924   29.4641  -72.2596 H         1 UNK         0.0461 
     84 H84       -70.4432   28.2573  -70.4608 H         1 UNK         0.3453 
     85 H85       -69.9051   26.6182  -70.7147 H         1 UNK         0.3453 
     86 H86       -73.0852   28.5706  -74.3657 H         1 UNK         0.2984 
     87 H87       -70.8898   29.6962  -76.8863 H         1 UNK         0.0554 
     88 H88       -71.6163   27.6454  -78.1262 H         1 UNK         0.0847 
     89 H89       -72.0075   26.8673  -76.5918 H         1 UNK         0.0847 
     90 H90       -70.3408   27.2735  -76.9737 H         1 UNK         0.0847 
     91 H91       -73.5898   28.7709  -76.9956 H         1 UNK         0.3141 
     92 H92       -75.2802   31.3503  -75.6308 H         1 UNK         0.0743 
     93 H93       -76.0500   32.4303  -77.7391 H         1 UNK         0.0784 
     94 H94       -74.4642   33.0268  -77.2876 H         1 UNK         0.0784 
     95 H95       -74.6132   31.8492  -78.5837 H         1 UNK         0.0784 
     96 H96       -75.9822   29.8805  -77.9904 H         1 UNK         0.3213 
     97 H97       -77.8423   27.7003  -76.2418 H         1 UNK         0.0855 
     98 H98       -76.7194   28.2091  -79.0576 H         1 UNK         0.0814 
     99 H99       -78.0235   29.1305  -78.3066 H         1 UNK         0.0814 
    100 H100      -78.2442   27.4310  -78.6634 H         1 UNK         0.0814 
    101 H101      -76.9028   25.7467  -76.4156 H         1 UNK         0.3105 
    102 H102      -75.4594   24.0499  -77.9237 H         1 UNK         0.0547 
    103 H103      -73.1215   24.6603  -78.6441 H         1 UNK         0.0837 
    104 H104      -72.6417   24.7458  -76.9545 H         1 UNK         0.0837 
    105 H105      -73.1847   23.2230  -77.6403 H         1 UNK         0.0837 
    106 H106      -75.7735   23.3891  -75.8464 H         1 UNK         0.3020 
    107 H107      -74.4498   23.7894  -72.8476 H         1 UNK         0.1245 
    108 H108      -76.9743   25.5150  -73.0320 H         1 UNK         0.0781 
    109 H109      -75.4276   26.2194  -72.6756 H         1 UNK         0.0781 
    110 H110      -77.7572   25.5930  -69.2581 H         1 UNK         0.0836 
    111 H111      -78.4923   25.2497  -70.7995 H         1 UNK         0.0836 
    112 H112      -77.1543   23.3364  -74.0059 H         1 UNK         0.3022 
    113 H113      -76.5660   19.9092  -74.5006 H         1 UNK         0.0747 
    114 H114      -78.5604   19.5316  -73.0626 H         1 UNK         0.0793 
    115 H115      -77.1474   19.8425  -72.0692 H         1 UNK         0.0793 
    116 H116      -78.3428   21.1099  -72.3030 H         1 UNK         0.0793 
    117 H117      -78.9447   21.4711  -74.6933 H         1 UNK         0.3047 
    118 H118      -78.3046   23.0315  -77.8082 H         1 UNK         0.0822 
    119 H119      -80.3276   21.7953  -78.5371 H         1 UNK         0.0807 
    120 H120      -80.1385   20.6432  -77.2145 H         1 UNK         0.0807 
    121 H121      -78.9446   20.7157  -78.5029 H         1 UNK         0.0807 
    122 H122      -80.6723   22.8908  -76.2552 H         1 UNK         0.2946 
    123 H123      -81.4172   24.6793  -75.1480 H         1 UNK         0.1144 
    124 H124      -81.0634   25.0189  -72.6783 H         1 UNK         0.0793 
    125 H125      -79.3345   24.7481  -72.8937 H         1 UNK         0.0793 
    126 H126      -80.4765   23.4495  -73.2033 H         1 UNK         0.0793 
    127 H127      -79.8189   26.8700  -74.0737 H         1 UNK         0.2896 
@<TRIPOS>BOND
     1    1    2 1    
     2    1   67 1    
     3    1   68 1    
     4    1   69 1    
     5    2    3 2    
     6    2    4 am   BACKBONE|DICT|INTERRES
     7    4    5 1    
     8    4   70 1    
     9    5    6 1    
    10    5   65 1    
    11    5   71 1    
    12    6    7 1    
    13    6   72 1    
    14    6   73 1    
    15    7    8 1    
    16    8    9 1    
    17    8   74 1    
    18    8   75 1    
    19    9   10 ar   
    20    9   14 ar   
    21   10   11 ar   
    22   10   76 1    
    23   11   12 ar   
    24   11   48 1    
    25   12   13 ar   
    26   12   77 1    
    27   13   14 ar   
    28   13   15 1    
    29   14   78 1    
    30   15   16 1    
    31   15   79 1    
    32   15   80 1    
    33   16   17 1    
    34   17   18 1    
    35   17   81 1    
    36   17   82 1    
    37   18   19 1    
    38   18   22 1    
    39   18   83 1    
    40   19   20 am   BACKBONE|DICT|INTERRES
    41   19   21 2    
    42   20   84 1    
    43   20   85 1    
    44   22   23 am   BACKBONE|DICT|INTERRES
    45   22   86 1    
    46   23   24 2    
    47   23   25 1    
    48   25   26 1    
    49   25   27 1    
    50   25   87 1    
    51   26   88 1    
    52   26   89 1    
    53   26   90 1    
    54   27   28 am   BACKBONE|DICT|INTERRES
    55   27   91 1    
    56   28   29 2    
    57   28   30 1    
    58   30   31 1    
    59   30   32 1    
    60   30   92 1    
    61   31   93 1    
    62   31   94 1    
    63   31   95 1    
    64   32   33 am   BACKBONE|DICT|INTERRES
    65   32   96 1    
    66   33   34 2    
    67   33   35 1    
    68   35   36 1    
    69   35   37 1    
    70   35   97 1    
    71   36   98 1    
    72   36   99 1    
    73   36  100 1    
    74   37   38 am   BACKBONE|DICT|INTERRES
    75   37  101 1    
    76   38   39 2    
    77   38   40 1    
    78   40   41 1    
    79   40   42 1    
    80   40  102 1    
    81   41  103 1    
    82   41  104 1    
    83   41  105 1    
    84   42   43 am   BACKBONE|DICT|INTERRES
    85   42  106 1    
    86   43   44 2    
    87   43   45 1    
    88   45   46 1    
    89   45   49 1    
    90   45  107 1    
    91   46   47 1    
    92   46  108 1    
    93   46  109 1    
    94   47   48 1    
    95   48  110 1    
    96   48  111 1    
    97   49   50 am   BACKBONE|DICT|INTERRES
    98   49  112 1    
    99   50   51 2    
   100   50   52 1    
   101   52   53 1    
   102   52   54 1    
   103   52  113 1    
   104   53  114 1    
   105   53  115 1    
   106   53  116 1    
   107   54   55 am   BACKBONE|DICT|INTERRES
   108   54  117 1    
   109   55   56 2    
   110   55   57 1    
   111   57   58 1    
   112   57   59 1    
   113   57  118 1    
   114   58  119 1    
   115   58  120 1    
   116   58  121 1    
   117   59   60 am   BACKBONE|DICT|INTERRES
   118   59  122 1    
   119   60   61 2    
   120   60   62 1    
   121   62   63 1    
   122   62   64 1    
   123   62  123 1    
   124   63  124 1    
   125   63  125 1    
   126   63  126 1    
   127   64   65 am   BACKBONE|DICT|INTERRES
   128   64  127 1    
   129   65   66 2    
@<TRIPOS>SUBSTRUCTURE
     1 UNK         1 GROUP             0       ****    0 ROOT    
