@<TRIPOS>MOLECULE
3R135
127   129    1
SMALL
USER_CHARGES


@<TRIPOS>ATOM
      1 CA        -79.4119   30.4621  -75.7150 C.3       0 UNK        -0.1998 
      2 C         -79.4940   29.3594  -74.6714 C.2       0 UNK         0.4909 
      3 O         -78.5384   28.6032  -74.5132 O.2       0 UNK        -0.5240 
      4 N         -80.6260   29.2591  -73.9632 N.am      1 UNK        -0.4739 
      5 CA        -80.8760   28.2717  -72.9059 C.3       1 UNK         0.0864 
      6 C6        -81.7294   28.8562  -71.7489 C.3       11 UNK        -0.0881 
      7 S7        -81.0007   30.3434  -70.9814 S.3       11 UNK        -0.2682 
      8 C8        -80.2067   29.6606  -69.4911 C.3       11 UNK         0.0289 
      9 C9        -78.8340   29.0809  -69.7987 C.ar      11 UNK        -0.0687 
     10 C10       -78.6411   27.6983  -69.8759 C.ar      11 UNK        -0.0823 
     11 C11       -77.3737   27.1757  -70.1537 C.ar      11 UNK        -0.0830 
     12 C12       -76.2927   28.0463  -70.3290 C.ar      11 UNK        -0.1021 
     13 C13       -76.4755   29.4325  -70.2728 C.ar      11 UNK        -0.0753 
     14 C14       -77.7490   29.9395  -69.9988 C.ar      11 UNK        -0.0933 
     15 C15       -75.3157   30.3992  -70.5125 C.3       11 UNK         0.0166 
     16 S16       -74.2476   29.9604  -71.9303 S.3       11 UNK        -0.2615 
     17 C17       -75.4653   29.5884  -73.2395 C.3       11 UNK        -0.0865 
     18 CA        -75.1452   30.1320  -74.6593 C.3       10 UNK         0.0862 
     19 C         -75.3339   31.6642  -74.8783 C.2       10 UNK         0.5551 
     20 N         -75.8276   32.4098  -73.8983 N.am      10 UNK        -0.7319 
     21 O         -75.1005   32.1724  -75.9733 O.2       10 UNK        -0.5018 
     22 N         -73.9315   29.5443  -75.2580 N.am      10 UNK        -0.4509 
     23 C         -72.6863   30.0416  -75.2682 C.2       10 UNK         0.4899 
     24 O         -72.3263   31.0447  -74.6496 O.2       10 UNK        -0.4839 
     25 CA        -71.6840   29.3027  -76.1769 C.3       9 UNK         0.0222 
     26 CB        -70.2450   29.8584  -76.0900 C.3       9 UNK        -0.1966 
     27 N         -71.7135   27.8444  -76.0135 N.am      9 UNK        -0.4218 
     28 C         -71.2996   27.1254  -74.9569 C.2       9 UNK         0.5020 
     29 O         -70.8187   27.6230  -73.9376 O.2       9 UNK        -0.5274 
     30 CA        -71.4165   25.5884  -75.0540 C.3       8 UNK         0.0270 
     31 CB        -71.8280   24.9588  -73.7094 C.3       8 UNK        -0.1976 
     32 N         -72.3753   25.1751  -76.0809 N.am      8 UNK        -0.4313 
     33 C         -72.0737   24.7426  -77.3127 C.2       8 UNK         0.5041 
     34 O         -70.9210   24.5732  -77.7111 O.2       8 UNK        -0.5577 
     35 CA        -73.2445   24.4801  -78.2844 C.3       7 UNK         0.0284 
     36 CB        -73.5275   22.9732  -78.3918 C.3       7 UNK        -0.1958 
     37 N         -74.4866   25.1794  -77.9362 N.am      7 UNK        -0.4454 
     38 C         -74.6325   26.5115  -77.8920 C.2       7 UNK         0.5089 
     39 O         -73.7448   27.3096  -78.1933 O.2       7 UNK        -0.5125 
     40 CA        -75.9544   27.0413  -77.3131 C.3       6 UNK         0.0408 
     41 CB        -77.0553   27.0650  -78.3831 C.3       6 UNK        -0.1791 
     42 N         -76.4092   26.2802  -76.1451 N.am      6 UNK        -0.4762 
     43 C         -75.7145   26.1066  -75.0107 C.2       6 UNK         0.5007 
     44 O         -74.6046   26.5980  -74.8229 O.2       6 UNK        -0.5032 
     45 CA        -76.3208   25.1872  -73.9342 C.3       5 UNK         0.0783 
     46 C46       -77.3977   25.9298  -73.1159 C.3       11 UNK        -0.0857 
     47 S47       -78.0571   24.9634  -71.7164 S.3       11 UNK        -0.2512 
     48 C48       -77.1685   25.6716  -70.2875 C.3       11 UNK         0.0225 
     49 N         -76.8287   23.9579  -74.5426 N.am      5 UNK        -0.4615 
     50 C         -76.0562   22.9703  -75.0115 C.2       4 UNK         0.5053 
     51 O         -74.8297   22.9564  -74.9149 O.2       4 UNK        -0.5105 
     52 CA        -76.7727   21.8115  -75.7262 C.3       4 UNK         0.0263 
     53 CB        -77.1520   20.7132  -74.7202 C.3       4 UNK        -0.1981 
     54 N         -77.9711   22.2425  -76.4526 N.am      4 UNK        -0.4224 
     55 C         -77.9566   23.0243  -77.5422 C.2       3 UNK         0.4895 
     56 O         -76.9262   23.4354  -78.0774 O.2       3 UNK        -0.5091 
     57 CA        -79.3280   23.4620  -78.0915 C.3       3 UNK         0.0250 
     58 CB        -79.9388   22.3592  -78.9708 C.3       3 UNK        -0.1996 
     59 N         -80.2818   23.8467  -77.0404 N.am      3 UNK        -0.4254 
     60 C         -80.0787   24.8567  -76.1833 C.2       2 UNK         0.5004 
     61 O         -79.0706   25.5639  -76.2046 O.2       2 UNK        -0.5226 
     62 CA        -81.1319   25.0935  -75.0940 C.3       2 UNK         0.0269 
     63 CB        -81.1536   23.9146  -74.0979 C.3       2 UNK        -0.1926 
     64 N         -80.7845   26.3374  -74.4060 N.am      2 UNK        -0.4687 
     65 C         -81.5178   27.0030  -73.5106 C.2       1 UNK         0.5165 
     66 O         -82.6568   26.6634  -73.1837 O.2       1 UNK        -0.5079 
     67 H67       -80.3387   31.0314  -75.7813 H         1 UNK         0.0900 
     68 H68       -78.6055   31.1516  -75.4663 H         1 UNK         0.0900 
     69 H69       -79.2039   30.0336  -76.6950 H         1 UNK         0.0900 
     70 H70       -81.3857   29.8990  -74.1460 H         1 UNK         0.2959 
     71 H71       -79.9211   27.9610  -72.4750 H         1 UNK         0.1079 
     72 H72       -81.8936   28.1009  -70.9782 H         1 UNK         0.0837 
     73 H73       -82.7217   29.1312  -72.1118 H         1 UNK         0.0837 
     74 H74       -80.8537   28.9160  -69.0251 H         1 UNK         0.0685 
     75 H75       -80.0974   30.4622  -68.7591 H         1 UNK         0.0685 
     76 H76       -79.4773   27.0270  -69.7353 H         1 UNK         0.1434 
     77 H77       -75.3105   27.6471  -70.5418 H         1 UNK         0.1329 
     78 H78       -77.9039   31.0087  -69.9472 H         1 UNK         0.1335 
     79 H79       -74.7016   30.4392  -69.6121 H         1 UNK         0.0680 
     80 H80       -75.6910   31.4110  -70.6727 H         1 UNK         0.0680 
     81 H81       -76.4625   29.9126  -72.9376 H         1 UNK         0.1032 
     82 H82       -75.5347   28.5048  -73.2904 H         1 UNK         0.1032 
     83 H83       -75.9398   29.7212  -75.2829 H         1 UNK         0.0461 
     84 H84       -75.9704   33.3951  -74.0546 H         1 UNK         0.3453 
     85 H85       -76.0049   32.0117  -72.9909 H         1 UNK         0.3453 
     86 H86       -74.0804   28.6685  -75.7391 H         1 UNK         0.2984 
     87 H87       -72.0280   29.4840  -77.1964 H         1 UNK         0.0554 
     88 H88       -70.2188   30.9127  -76.3682 H         1 UNK         0.0847 
     89 H89       -69.5724   29.3297  -76.7653 H         1 UNK         0.0847 
     90 H90       -69.8378   29.7829  -75.0815 H         1 UNK         0.0847 
     91 H91       -72.1376   27.3419  -76.7852 H         1 UNK         0.3141 
     92 H92       -70.4225   25.2134  -75.3055 H         1 UNK         0.0743 
     93 H93       -71.0773   25.1478  -72.9413 H         1 UNK         0.0784 
     94 H94       -72.7734   25.3622  -73.3460 H         1 UNK         0.0784 
     95 H95       -71.9377   23.8774  -73.7948 H         1 UNK         0.0784 
     96 H96       -73.3492   25.3278  -75.8417 H         1 UNK         0.3213 
     97 H97       -72.9324   24.8393  -79.2673 H         1 UNK         0.0855 
     98 H98       -73.8551   22.5564  -77.4391 H         1 UNK         0.0814 
     99 H99       -72.6331   22.4279  -78.6960 H         1 UNK         0.0814 
    100 H100      -74.3009   22.7655  -79.1316 H         1 UNK         0.0814 
    101 H101      -75.2926   24.6006  -77.7168 H         1 UNK         0.3105 
    102 H102      -75.7862   28.0684  -76.9882 H         1 UNK         0.0547 
    103 H103      -76.7497   27.6587  -79.2454 H         1 UNK         0.0837 
    104 H104      -77.9736   27.5055  -77.9940 H         1 UNK         0.0837 
    105 H105      -77.2920   26.0637  -78.7425 H         1 UNK         0.0837 
    106 H106      -77.3521   25.8935  -76.2009 H         1 UNK         0.3020 
    107 H107      -75.5101   24.9183  -73.2526 H         1 UNK         0.1245 
    108 H108      -78.2378   26.1768  -73.7581 H         1 UNK         0.0781 
    109 H109      -77.0205   26.8850  -72.7568 H         1 UNK         0.0781 
    110 H110      -76.1084   25.4299  -70.3787 H         1 UNK         0.0836 
    111 H111      -77.5156   25.1810  -69.3772 H         1 UNK         0.0836 
    112 H112      -77.8256   23.9069  -74.6826 H         1 UNK         0.3022 
    113 H113      -76.0730   21.3874  -76.4498 H         1 UNK         0.0747 
    114 H114      -77.5932   19.8511  -75.2209 H         1 UNK         0.0793 
    115 H115      -76.2720   20.3578  -74.1822 H         1 UNK         0.0793 
    116 H116      -77.8648   21.0728  -73.9767 H         1 UNK         0.0793 
    117 H117      -78.8631   21.9465  -76.0843 H         1 UNK         0.3047 
    118 H118      -79.1601   24.3398  -78.7192 H         1 UNK         0.0822 
    119 H119      -80.8586   22.6971  -79.4487 H         1 UNK         0.0807 
    120 H120      -80.1688   21.4609  -78.3966 H         1 UNK         0.0807 
    121 H121      -79.2508   22.0700  -79.7667 H         1 UNK         0.0807 
    122 H122      -81.1308   23.3036  -76.9716 H         1 UNK         0.2946 
    123 H123      -82.1089   25.2081  -75.5681 H         1 UNK         0.1144 
    124 H124      -80.1866   23.7799  -73.6124 H         1 UNK         0.0793 
    125 H125      -81.4038   22.9769  -74.5950 H         1 UNK         0.0793 
    126 H126      -81.8979   24.0620  -73.3156 H         1 UNK         0.0793 
    127 H127      -79.8874   26.7224  -74.6887 H         1 UNK         0.2896 
@<TRIPOS>BOND
     1    1    2 1    
     2    1   67 1    
     3    1   68 1    
     4    1   69 1    
     5    2    3 2    
     6    2    4 am   BACKBONE|DICT|INTERRES
     7    4    5 1    
     8    4   70 1    
     9    5    6 1    
    10    5   65 1    
    11    5   71 1    
    12    6    7 1    
    13    6   72 1    
    14    6   73 1    
    15    7    8 1    
    16    8    9 1    
    17    8   74 1    
    18    8   75 1    
    19    9   10 ar   
    20    9   14 ar   
    21   10   11 ar   
    22   10   76 1    
    23   11   12 ar   
    24   11   48 1    
    25   12   13 ar   
    26   12   77 1    
    27   13   14 ar   
    28   13   15 1    
    29   14   78 1    
    30   15   16 1    
    31   15   79 1    
    32   15   80 1    
    33   16   17 1    
    34   17   18 1    
    35   17   81 1    
    36   17   82 1    
    37   18   19 1    
    38   18   22 1    
    39   18   83 1    
    40   19   20 am   BACKBONE|DICT|INTERRES
    41   19   21 2    
    42   20   84 1    
    43   20   85 1    
    44   22   23 am   BACKBONE|DICT|INTERRES
    45   22   86 1    
    46   23   24 2    
    47   23   25 1    
    48   25   26 1    
    49   25   27 1    
    50   25   87 1    
    51   26   88 1    
    52   26   89 1    
    53   26   90 1    
    54   27   28 am   BACKBONE|DICT|INTERRES
    55   27   91 1    
    56   28   29 2    
    57   28   30 1    
    58   30   31 1    
    59   30   32 1    
    60   30   92 1    
    61   31   93 1    
    62   31   94 1    
    63   31   95 1    
    64   32   33 am   BACKBONE|DICT|INTERRES
    65   32   96 1    
    66   33   34 2    
    67   33   35 1    
    68   35   36 1    
    69   35   37 1    
    70   35   97 1    
    71   36   98 1    
    72   36   99 1    
    73   36  100 1    
    74   37   38 am   BACKBONE|DICT|INTERRES
    75   37  101 1    
    76   38   39 2    
    77   38   40 1    
    78   40   41 1    
    79   40   42 1    
    80   40  102 1    
    81   41  103 1    
    82   41  104 1    
    83   41  105 1    
    84   42   43 am   BACKBONE|DICT|INTERRES
    85   42  106 1    
    86   43   44 2    
    87   43   45 1    
    88   45   46 1    
    89   45   49 1    
    90   45  107 1    
    91   46   47 1    
    92   46  108 1    
    93   46  109 1    
    94   47   48 1    
    95   48  110 1    
    96   48  111 1    
    97   49   50 am   BACKBONE|DICT|INTERRES
    98   49  112 1    
    99   50   51 2    
   100   50   52 1    
   101   52   53 1    
   102   52   54 1    
   103   52  113 1    
   104   53  114 1    
   105   53  115 1    
   106   53  116 1    
   107   54   55 am   BACKBONE|DICT|INTERRES
   108   54  117 1    
   109   55   56 2    
   110   55   57 1    
   111   57   58 1    
   112   57   59 1    
   113   57  118 1    
   114   58  119 1    
   115   58  120 1    
   116   58  121 1    
   117   59   60 am   BACKBONE|DICT|INTERRES
   118   59  122 1    
   119   60   61 2    
   120   60   62 1    
   121   62   63 1    
   122   62   64 1    
   123   62  123 1    
   124   63  124 1    
   125   63  125 1    
   126   63  126 1    
   127   64   65 am   BACKBONE|DICT|INTERRES
   128   64  127 1    
   129   65   66 2    
@<TRIPOS>SUBSTRUCTURE
     1 UNK         1 GROUP             0       ****    0 ROOT    
