@<TRIPOS>MOLECULE
3R135
127   129    1
SMALL
USER_CHARGES


@<TRIPOS>ATOM
      1 CA        -81.7052   30.7157  -76.0323 C.3       0 UNK        -0.1998 
      2 C         -80.8793   30.1353  -74.8945 C.2       0 UNK         0.4909 
      3 O         -79.8151   30.6642  -74.5780 O.2       0 UNK        -0.5240 
      4 N         -81.3562   29.0453  -74.2805 N.am      1 UNK        -0.4739 
      5 CA        -80.6973   28.3209  -73.1884 C.3       1 UNK         0.0864 
      6 C6        -81.7641   27.5774  -72.3375 C.3       11 UNK        -0.0881 
      7 S7        -81.1946   26.6627  -70.8590 S.3       11 UNK        -0.2682 
      8 C8        -80.2040   27.8770  -69.9240 C.3       11 UNK         0.0289 
      9 C9        -78.7449   27.9086  -70.3645 C.ar      11 UNK        -0.0687 
     10 C10       -78.0035   26.7249  -70.4483 C.ar      11 UNK        -0.0823 
     11 C11       -76.6729   26.7395  -70.8790 C.ar      11 UNK        -0.0830 
     12 C12       -76.0774   27.9614  -71.2058 C.ar      11 UNK        -0.1021 
     13 C13       -76.7916   29.1579  -71.0823 C.ar      11 UNK        -0.0753 
     14 C14       -78.1251   29.1247  -70.6646 C.ar      11 UNK        -0.0933 
     15 C15       -76.1186   30.4897  -71.3744 C.3       11 UNK         0.0166 
     16 S16       -76.6984   31.1880  -72.9465 S.3       11 UNK        -0.2615 
     17 C17       -75.5305   32.5650  -73.1936 C.3       11 UNK        -0.0865 
     18 CA        -74.3982   32.2021  -74.1925 C.3       10 UNK         0.0862 
     19 C         -73.6849   33.4832  -74.7194 C.2       10 UNK         0.5551 
     20 N         -72.3890   33.6688  -74.4961 N.am      10 UNK        -0.7319 
     21 O         -74.3209   34.3230  -75.3515 O.2       10 UNK        -0.5018 
     22 N         -73.4822   31.1898  -73.6342 N.am      10 UNK        -0.4509 
     23 C         -72.7441   30.3426  -74.3628 C.2       10 UNK         0.4899 
     24 O         -72.8024   30.2736  -75.5919 O.2       10 UNK        -0.4839 
     25 CA        -71.7185   29.4705  -73.6051 C.3       9 UNK         0.0222 
     26 CB        -72.0086   29.3057  -72.0952 C.3       9 UNK        -0.1966 
     27 N         -71.5079   28.1693  -74.2515 N.am      9 UNK        -0.4218 
     28 C         -72.4057   27.1853  -74.3986 C.2       9 UNK         0.5020 
     29 O         -73.5423   27.1954  -73.9206 O.2       9 UNK        -0.5274 
     30 CA        -71.9403   25.9579  -75.1973 C.3       8 UNK         0.0270 
     31 CB        -71.7447   24.7471  -74.2716 C.3       8 UNK        -0.1976 
     32 N         -72.9252   25.6362  -76.2292 N.am      8 UNK        -0.4313 
     33 C         -73.0317   26.2944  -77.3918 C.2       8 UNK         0.5041 
     34 O         -72.2172   27.1410  -77.7649 O.2       8 UNK        -0.5577 
     35 CA        -74.2566   25.9847  -78.2742 C.3       7 UNK         0.0284 
     36 CB        -73.9984   26.2225  -79.7781 C.3       7 UNK        -0.1958 
     37 N         -74.8466   24.6644  -78.0271 N.am      7 UNK        -0.4454 
     38 C         -74.3323   23.4619  -78.3229 C.2       7 UNK         0.5089 
     39 O         -73.2440   23.2935  -78.8752 O.2       7 UNK        -0.5125 
     40 CA        -75.1974   22.2450  -77.9323 C.3       6 UNK         0.0408 
     41 CB        -74.4208   20.9118  -77.9824 C.3       6 UNK        -0.1791 
     42 N         -75.8762   22.4083  -76.6398 N.am      6 UNK        -0.4762 
     43 C         -75.3028   22.5768  -75.4360 C.2       6 UNK         0.5007 
     44 O         -74.0836   22.6017  -75.2691 O.2       6 UNK        -0.5032 
     45 CA        -76.2348   22.7780  -74.2203 C.3       5 UNK         0.0783 
     46 C46       -75.6767   23.8619  -73.2599 C.3       11 UNK        -0.0857 
     47 S47       -76.7205   24.0892  -71.7842 S.3       11 UNK        -0.2512 
     48 C48       -75.8571   25.4511  -70.9310 C.3       11 UNK         0.0225 
     49 N         -77.5982   23.0944  -74.6545 N.am      5 UNK        -0.4615 
     50 C         -78.6385   22.2534  -74.6735 C.2       4 UNK         0.5053 
     51 O         -78.5671   21.0720  -74.3351 O.2       4 UNK        -0.5105 
     52 CA        -79.9882   22.8165  -75.1589 C.3       4 UNK         0.0263 
     53 CB        -80.9448   23.0098  -73.9705 C.3       4 UNK        -0.1981 
     54 N         -79.8471   24.0893  -75.8737 N.am      4 UNK        -0.4224 
     55 C         -79.4467   24.2008  -77.1502 C.2       3 UNK         0.4895 
     56 O         -79.2260   23.2349  -77.8808 O.2       3 UNK        -0.5091 
     57 CA        -79.1965   25.6226  -77.6932 C.3       3 UNK         0.0250 
     58 CB        -80.4759   26.1900  -78.3277 C.3       3 UNK        -0.1996 
     59 N         -78.7023   26.5606  -76.6804 N.am      3 UNK        -0.4254 
     60 C         -77.5780   26.3976  -75.9694 C.2       2 UNK         0.5004 
     61 O         -76.7838   25.4804  -76.1679 O.2       2 UNK        -0.5226 
     62 CA        -77.3104   27.3724  -74.8120 C.3       2 UNK         0.0269 
     63 CB        -76.2888   28.4335  -75.2482 C.3       2 UNK        -0.1926 
     64 N         -78.5006   28.0237  -74.2467 N.am      2 UNK        -0.4687 
     65 C         -79.5950   27.4079  -73.7704 C.2       1 UNK         0.5165 
     66 O         -79.7792   26.1925  -73.8534 O.2       1 UNK        -0.5079 
     67 H67       -81.9821   31.7451  -75.8064 H         1 UNK         0.0900 
     68 H68       -81.1256   30.7135  -76.9550 H         1 UNK         0.0900 
     69 H69       -82.6197   30.1484  -76.2044 H         1 UNK         0.0900 
     70 H70       -82.2265   28.6451  -74.6018 H         1 UNK         0.2959 
     71 H71       -80.2077   29.0534  -72.5453 H         1 UNK         0.1079 
     72 H72       -82.5124   28.2946  -71.9960 H         1 UNK         0.0837 
     73 H73       -82.3067   26.8666  -72.9638 H         1 UNK         0.0837 
     74 H74       -80.2358   27.6086  -68.8673 H         1 UNK         0.0685 
     75 H75       -80.6671   28.8617  -70.0050 H         1 UNK         0.0685 
     76 H76       -78.4702   25.7848  -70.1878 H         1 UNK         0.1434 
     77 H77       -75.0492   27.9812  -71.5375 H         1 UNK         0.1329 
     78 H78       -78.6777   30.0505  -70.5790 H         1 UNK         0.1335 
     79 H79       -75.0361   30.3657  -71.4056 H         1 UNK         0.0680 
     80 H80       -76.3276   31.1931  -70.5671 H         1 UNK         0.0680 
     81 H81       -75.1208   32.8943  -72.2371 H         1 UNK         0.1032 
     82 H82       -76.1203   33.4040  -73.5683 H         1 UNK         0.1032 
     83 H83       -74.8756   31.7635  -75.0714 H         1 UNK         0.0461 
     84 H84       -71.8546   32.9871  -73.9831 H         1 UNK         0.3453 
     85 H85       -71.9419   34.5010  -74.8476 H         1 UNK         0.3453 
     86 H86       -73.3579   31.2039  -72.6339 H         1 UNK         0.2984 
     87 H87       -70.7667   29.9961  -73.6927 H         1 UNK         0.0554 
     88 H88       -71.9527   30.2588  -71.5685 H         1 UNK         0.0847 
     89 H89       -71.2788   28.6460  -71.6258 H         1 UNK         0.0847 
     90 H90       -72.9956   28.8828  -71.9145 H         1 UNK         0.0847 
     91 H91       -70.6165   28.0624  -74.7155 H         1 UNK         0.3141 
     92 H92       -70.9835   26.1738  -75.6779 H         1 UNK         0.0743 
     93 H93       -70.9705   24.9452  -73.5295 H         1 UNK         0.0784 
     94 H94       -71.4415   23.8625  -74.8321 H         1 UNK         0.0784 
     95 H95       -72.6583   24.5024  -73.7303 H         1 UNK         0.0784 
     96 H96       -73.6356   24.9600  -75.9850 H         1 UNK         0.3213 
     97 H97       -75.0184   26.7027  -77.9680 H         1 UNK         0.0855 
     98 H98       -73.1781   25.6096  -80.1521 H         1 UNK         0.0814 
     99 H99       -73.7341   27.2634  -79.9682 H         1 UNK         0.0814 
    100 H100      -74.8840   26.0014  -80.3736 H         1 UNK         0.0814 
    101 H101      -75.7108   24.6921  -77.4889 H         1 UNK         0.3105 
    102 H102      -75.9891   22.1892  -78.6809 H         1 UNK         0.0547 
    103 H103      -75.0603   20.0692  -77.7202 H         1 UNK         0.0837 
    104 H104      -73.5690   20.9121  -77.3017 H         1 UNK         0.0837 
    105 H105      -74.0335   20.7231  -78.9843 H         1 UNK         0.0837 
    106 H106      -76.8864   22.4346  -76.6776 H         1 UNK         0.3020 
    107 H107      -76.2354   21.8273  -73.6826 H         1 UNK         0.1245 
    108 H108      -75.5662   24.8197  -73.7711 H         1 UNK         0.0781 
    109 H109      -74.6818   23.5821  -72.9099 H         1 UNK         0.0781 
    110 H110      -74.8889   25.6275  -71.4032 H         1 UNK         0.0836 
    111 H111      -75.6429   25.1379  -69.9086 H         1 UNK         0.0836 
    112 H112      -77.7271   24.0390  -74.9945 H         1 UNK         0.3022 
    113 H113      -80.4294   22.0808  -75.8348 H         1 UNK         0.0747 
    114 H114      -81.9107   23.3969  -74.2953 H         1 UNK         0.0793 
    115 H115      -81.1292   22.0633  -73.4607 H         1 UNK         0.0793 
    116 H116      -80.5372   23.7015  -73.2318 H         1 UNK         0.0793 
    117 H117      -79.9528   24.9298  -75.3097 H         1 UNK         0.3047 
    118 H118      -78.4319   25.5454  -78.4692 H         1 UNK         0.0822 
    119 H119      -80.2921   27.1567  -78.7969 H         1 UNK         0.0807 
    120 H120      -81.2700   26.3185  -77.5910 H         1 UNK         0.0807 
    121 H121      -80.8554   25.5229  -79.1032 H         1 UNK         0.0807 
    122 H122      -79.2989   27.3402  -76.4465 H         1 UNK         0.2946 
    123 H123      -76.8623   26.7839  -74.0090 H         1 UNK         0.1144 
    124 H124      -75.8382   28.9167  -74.3829 H         1 UNK         0.0793 
    125 H125      -76.7373   29.2027  -75.8774 H         1 UNK         0.0793 
    126 H126      -75.4645   27.9885  -75.8074 H         1 UNK         0.0793 
    127 H127      -78.4785   29.0370  -74.1945 H         1 UNK         0.2896 
@<TRIPOS>BOND
     1    1    2 1    
     2    1   67 1    
     3    1   68 1    
     4    1   69 1    
     5    2    3 2    
     6    2    4 am   BACKBONE|DICT|INTERRES
     7    4    5 1    
     8    4   70 1    
     9    5    6 1    
    10    5   65 1    
    11    5   71 1    
    12    6    7 1    
    13    6   72 1    
    14    6   73 1    
    15    7    8 1    
    16    8    9 1    
    17    8   74 1    
    18    8   75 1    
    19    9   10 ar   
    20    9   14 ar   
    21   10   11 ar   
    22   10   76 1    
    23   11   12 ar   
    24   11   48 1    
    25   12   13 ar   
    26   12   77 1    
    27   13   14 ar   
    28   13   15 1    
    29   14   78 1    
    30   15   16 1    
    31   15   79 1    
    32   15   80 1    
    33   16   17 1    
    34   17   18 1    
    35   17   81 1    
    36   17   82 1    
    37   18   19 1    
    38   18   22 1    
    39   18   83 1    
    40   19   20 am   BACKBONE|DICT|INTERRES
    41   19   21 2    
    42   20   84 1    
    43   20   85 1    
    44   22   23 am   BACKBONE|DICT|INTERRES
    45   22   86 1    
    46   23   24 2    
    47   23   25 1    
    48   25   26 1    
    49   25   27 1    
    50   25   87 1    
    51   26   88 1    
    52   26   89 1    
    53   26   90 1    
    54   27   28 am   BACKBONE|DICT|INTERRES
    55   27   91 1    
    56   28   29 2    
    57   28   30 1    
    58   30   31 1    
    59   30   32 1    
    60   30   92 1    
    61   31   93 1    
    62   31   94 1    
    63   31   95 1    
    64   32   33 am   BACKBONE|DICT|INTERRES
    65   32   96 1    
    66   33   34 2    
    67   33   35 1    
    68   35   36 1    
    69   35   37 1    
    70   35   97 1    
    71   36   98 1    
    72   36   99 1    
    73   36  100 1    
    74   37   38 am   BACKBONE|DICT|INTERRES
    75   37  101 1    
    76   38   39 2    
    77   38   40 1    
    78   40   41 1    
    79   40   42 1    
    80   40  102 1    
    81   41  103 1    
    82   41  104 1    
    83   41  105 1    
    84   42   43 am   BACKBONE|DICT|INTERRES
    85   42  106 1    
    86   43   44 2    
    87   43   45 1    
    88   45   46 1    
    89   45   49 1    
    90   45  107 1    
    91   46   47 1    
    92   46  108 1    
    93   46  109 1    
    94   47   48 1    
    95   48  110 1    
    96   48  111 1    
    97   49   50 am   BACKBONE|DICT|INTERRES
    98   49  112 1    
    99   50   51 2    
   100   50   52 1    
   101   52   53 1    
   102   52   54 1    
   103   52  113 1    
   104   53  114 1    
   105   53  115 1    
   106   53  116 1    
   107   54   55 am   BACKBONE|DICT|INTERRES
   108   54  117 1    
   109   55   56 2    
   110   55   57 1    
   111   57   58 1    
   112   57   59 1    
   113   57  118 1    
   114   58  119 1    
   115   58  120 1    
   116   58  121 1    
   117   59   60 am   BACKBONE|DICT|INTERRES
   118   59  122 1    
   119   60   61 2    
   120   60   62 1    
   121   62   63 1    
   122   62   64 1    
   123   62  123 1    
   124   63  124 1    
   125   63  125 1    
   126   63  126 1    
   127   64   65 am   BACKBONE|DICT|INTERRES
   128   64  127 1    
   129   65   66 2    
@<TRIPOS>SUBSTRUCTURE
     1 UNK         1 GROUP             0       ****    0 ROOT    
