@<TRIPOS>MOLECULE
3R135
127   129    1
SMALL
USER_CHARGES


@<TRIPOS>ATOM
      1 CA        -85.1979   24.7369  -72.6570 C.3       0 UNK        -0.1998 
      2 C         -84.0903   25.2203  -73.5810 C.2       0 UNK         0.4909 
      3 O         -84.2931   25.2934  -74.7933 O.2       0 UNK        -0.5240 
      4 N         -82.9216   25.5532  -73.0167 N.am      1 UNK        -0.4739 
      5 CA        -81.7414   26.0370  -73.7471 C.3       1 UNK         0.0864 
      6 C6        -80.6912   26.6519  -72.7886 C.3       11 UNK        -0.0881 
      7 S7        -81.3174   28.1696  -71.9954 S.3       11 UNK        -0.2682 
      8 C8        -80.4053   29.4649  -72.9105 C.3       11 UNK         0.0289 
      9 C9        -78.9736   29.7506  -72.4421 C.ar      11 UNK        -0.0687 
     10 C10       -78.2940   30.8276  -73.0219 C.ar      11 UNK        -0.0823 
     11 C11       -77.0124   31.1877  -72.5931 C.ar      11 UNK        -0.0830 
     12 C12       -76.3950   30.4486  -71.5790 C.ar      11 UNK        -0.1021 
     13 C13       -77.0579   29.3697  -70.9857 C.ar      11 UNK        -0.0753 
     14 C14       -78.3363   29.0189  -71.4299 C.ar      11 UNK        -0.0933 
     15 C15       -76.4432   28.6322  -69.8026 C.3       11 UNK         0.0166 
     16 S16       -75.4111   27.2213  -70.3073 S.3       11 UNK        -0.2615 
     17 C17       -73.8163   28.0346  -70.6683 C.3       11 UNK        -0.0865 
     18 CA        -73.4251   27.9139  -72.1666 C.3       10 UNK         0.0862 
     19 C         -72.2479   28.8601  -72.5671 C.2       10 UNK         0.5551 
     20 N         -71.4440   28.5232  -73.5701 N.am      10 UNK        -0.7319 
     21 O         -72.0838   29.9335  -71.9933 O.2       10 UNK        -0.5018 
     22 N         -73.2546   26.5139  -72.5943 N.am      10 UNK        -0.4509 
     23 C         -72.2418   25.7145  -72.2361 C.2       10 UNK         0.4899 
     24 O         -71.3625   26.0316  -71.4336 O.2       10 UNK        -0.4839 
     25 CA        -72.1691   24.3237  -72.8841 C.3       9 UNK         0.0222 
     26 CB        -72.8858   23.2980  -71.9906 C.3       9 UNK        -0.1966 
     27 N         -72.6672   24.2024  -74.2616 N.am      9 UNK        -0.4218 
     28 C         -72.3783   24.9681  -75.3266 C.2       9 UNK         0.5020 
     29 O         -71.7888   26.0492  -75.2701 O.2       9 UNK        -0.5274 
     30 CA        -72.7499   24.3882  -76.7042 C.3       8 UNK         0.0270 
     31 CB        -73.2589   22.9247  -76.6596 C.3       8 UNK        -0.1976 
     32 N         -73.7205   25.2388  -77.3930 N.am      8 UNK        -0.4313 
     33 C         -73.9496   25.2049  -78.7131 C.2       8 UNK         0.5041 
     34 O         -73.2621   24.5616  -79.5083 O.2       8 UNK        -0.5577 
     35 CA        -75.1678   25.9708  -79.2471 C.3       7 UNK         0.0284 
     36 CB        -76.4744   25.3092  -78.7709 C.3       7 UNK        -0.1958 
     37 N         -75.1658   27.3773  -78.8464 N.am      7 UNK        -0.4454 
     38 C         -75.1014   28.4152  -79.6934 C.2       7 UNK         0.5089 
     39 O         -74.9255   28.2942  -80.9067 O.2       7 UNK        -0.5125 
     40 CA        -75.3087   29.8331  -79.1210 C.3       6 UNK         0.0408 
     41 CB        -76.6362   30.4237  -79.6255 C.3       6 UNK        -0.1791 
     42 N         -75.3090   29.8758  -77.6585 N.am      6 UNK        -0.4762 
     43 C         -74.2089   29.9021  -76.8955 C.2       6 UNK         0.5007 
     44 O         -73.0671   29.9790  -77.3498 O.2       6 UNK        -0.5032 
     45 CA        -74.4115   29.7781  -75.3696 C.3       5 UNK         0.0783 
     46 C46       -74.2991   31.1472  -74.6555 C.3       11 UNK        -0.0857 
     47 S47       -75.7696   32.2092  -74.8791 S.3       11 UNK        -0.2512 
     48 C48       -76.3391   32.4308  -73.1636 C.3       11 UNK         0.0225 
     49 N         -75.6305   29.0601  -74.9748 N.am      5 UNK        -0.4615 
     50 C         -75.9197   27.7973  -75.3013 C.2       4 UNK         0.5053 
     51 O         -75.1868   27.0932  -75.9956 O.2       4 UNK        -0.5105 
     52 CA        -77.2959   27.2802  -74.8578 C.3       4 UNK         0.0263 
     53 CB        -78.3730   27.9118  -75.7593 C.3       4 UNK        -0.1981 
     54 N         -77.4291   25.8189  -74.9169 N.am      4 UNK        -0.4224 
     55 C         -76.6402   24.9250  -74.2987 C.2       3 UNK         0.4895 
     56 O         -75.7055   25.2277  -73.5564 O.2       3 UNK        -0.5091 
     57 CA        -76.9703   23.4446  -74.5484 C.3       3 UNK         0.0250 
     58 CB        -76.2001   22.4792  -73.6281 C.3       3 UNK        -0.1996 
     59 N         -78.4058   23.2273  -74.3878 N.am      3 UNK        -0.4254 
     60 C         -79.1758   22.4977  -75.2038 C.2       2 UNK         0.5004 
     61 O         -78.7454   21.8526  -76.1604 O.2       2 UNK        -0.5226 
     62 CA        -80.6905   22.4973  -74.9184 C.3       2 UNK         0.0269 
     63 CB        -81.0903   21.2307  -74.1442 C.3       2 UNK        -0.1926 
     64 N         -81.1825   23.6776  -74.1934 N.am      2 UNK        -0.4687 
     65 C         -81.1018   24.9448  -74.6292 C.2       1 UNK         0.5165 
     66 O         -80.5425   25.2670  -75.6776 O.2       1 UNK        -0.5079 
     67 H67       -84.8844   24.7295  -71.6132 H         1 UNK         0.0900 
     68 H68       -85.4978   23.7251  -72.9283 H         1 UNK         0.0900 
     69 H69       -86.0689   25.3858  -72.7443 H         1 UNK         0.0900 
     70 H70       -82.8239   25.5036  -72.0123 H         1 UNK         0.2959 
     71 H71       -82.0754   26.8203  -74.4319 H         1 UNK         0.1079 
     72 H72       -80.4195   25.9402  -72.0068 H         1 UNK         0.0837 
     73 H73       -79.7625   26.8848  -73.3087 H         1 UNK         0.0837 
     74 H74       -80.4011   29.2198  -73.9727 H         1 UNK         0.0685 
     75 H75       -80.9798   30.3877  -72.8175 H         1 UNK         0.0685 
     76 H76       -78.7795   31.4149  -73.7902 H         1 UNK         0.1434 
     77 H77       -75.4170   30.7394  -71.2210 H         1 UNK         0.1329 
     78 H78       -78.8382   28.1918  -70.9497 H         1 UNK         0.1335 
     79 H79       -77.2378   28.2557  -69.1566 H         1 UNK         0.0680 
     80 H80       -75.8656   29.3194  -69.1826 H         1 UNK         0.0680 
     81 H81       -73.8764   29.0807  -70.3670 H         1 UNK         0.1032 
     82 H82       -73.0470   27.5932  -70.0333 H         1 UNK         0.1032 
     83 H83       -74.2740   28.2853  -72.7375 H         1 UNK         0.0461 
     84 H84       -70.6883   29.1378  -73.8261 H         1 UNK         0.3453 
     85 H85       -71.5728   27.6453  -74.0645 H         1 UNK         0.3453 
     86 H86       -73.9812   26.1341  -73.1945 H         1 UNK         0.2984 
     87 H87       -71.1129   24.0509  -72.9230 H         1 UNK         0.0554 
     88 H88       -72.7852   22.2836  -72.3765 H         1 UNK         0.0847 
     89 H89       -73.9486   23.5247  -71.8966 H         1 UNK         0.0847 
     90 H90       -72.4675   23.3007  -70.9829 H         1 UNK         0.0847 
     91 H91       -73.1775   23.3546  -74.4550 H         1 UNK         0.3141 
     92 H92       -71.8225   24.3993  -77.2810 H         1 UNK         0.0743 
     93 H93       -72.5548   22.2692  -76.1447 H         1 UNK         0.0784 
     94 H94       -74.2269   22.8433  -76.1650 H         1 UNK         0.0784 
     95 H95       -73.3748   22.5165  -77.6636 H         1 UNK         0.0784 
     96 H96       -74.2707   25.8654  -76.8015 H         1 UNK         0.3213 
     97 H97       -75.1416   25.8881  -80.3359 H         1 UNK         0.0855 
     98 H98       -76.5019   24.2543  -79.0476 H         1 UNK         0.0814 
     99 H99       -77.3447   25.7848  -79.2232 H         1 UNK         0.0814 
    100 H100      -76.5905   25.3648  -77.6886 H         1 UNK         0.0814 
    101 H101      -75.2354   27.5568  -77.8498 H         1 UNK         0.3105 
    102 H102      -74.4964   30.4595  -79.4956 H         1 UNK         0.0547 
    103 H103      -76.6616   30.4550  -80.7156 H         1 UNK         0.0837 
    104 H104      -77.4926   29.8332  -79.2974 H         1 UNK         0.0837 
    105 H105      -76.7762   31.4454  -79.2721 H         1 UNK         0.0837 
    106 H106      -76.2070   29.8352  -77.1989 H         1 UNK         0.3020 
    107 H107      -73.5759   29.1599  -75.0449 H         1 UNK         0.1245 
    108 H108      -73.4169   31.6933  -74.9957 H         1 UNK         0.0781 
    109 H109      -74.1400   30.9840  -73.5895 H         1 UNK         0.0781 
    110 H110      -77.0504   33.2577  -73.1403 H         1 UNK         0.0836 
    111 H111      -75.5002   32.7437  -72.5397 H         1 UNK         0.0836 
    112 H112      -76.2894   29.5937  -74.4236 H         1 UNK         0.3022 
    113 H113      -77.4542   27.5856  -73.8223 H         1 UNK         0.0747 
    114 H114      -79.3764   27.6033  -75.4745 H         1 UNK         0.0793 
    115 H115      -78.3529   29.0009  -75.7034 H         1 UNK         0.0793 
    116 H116      -78.2316   27.6365  -76.8057 H         1 UNK         0.0793 
    117 H117      -78.1803   25.4672  -75.4962 H         1 UNK         0.3047 
    118 H118      -76.6775   23.2399  -75.5805 H         1 UNK         0.0822 
    119 H119      -76.4731   21.4422  -73.8245 H         1 UNK         0.0807 
    120 H120      -76.3962   22.6840  -72.5749 H         1 UNK         0.0807 
    121 H121      -75.1263   22.5623  -73.7867 H         1 UNK         0.0807 
    122 H122      -78.8506   23.7226  -73.6279 H         1 UNK         0.2946 
    123 H123      -81.1924   22.4792  -75.8885 H         1 UNK         0.1144 
    124 H124      -82.1720   21.1603  -74.0280 H         1 UNK         0.0793 
    125 H125      -80.6417   21.2066  -73.1503 H         1 UNK         0.0793 
    126 H126      -80.7648   20.3319  -74.6703 H         1 UNK         0.0793 
    127 H127      -81.6687   23.5070  -73.3247 H         1 UNK         0.2896 
@<TRIPOS>BOND
     1    1    2 1    
     2    1   67 1    
     3    1   68 1    
     4    1   69 1    
     5    2    3 2    
     6    2    4 am   BACKBONE|DICT|INTERRES
     7    4    5 1    
     8    4   70 1    
     9    5    6 1    
    10    5   65 1    
    11    5   71 1    
    12    6    7 1    
    13    6   72 1    
    14    6   73 1    
    15    7    8 1    
    16    8    9 1    
    17    8   74 1    
    18    8   75 1    
    19    9   10 ar   
    20    9   14 ar   
    21   10   11 ar   
    22   10   76 1    
    23   11   12 ar   
    24   11   48 1    
    25   12   13 ar   
    26   12   77 1    
    27   13   14 ar   
    28   13   15 1    
    29   14   78 1    
    30   15   16 1    
    31   15   79 1    
    32   15   80 1    
    33   16   17 1    
    34   17   18 1    
    35   17   81 1    
    36   17   82 1    
    37   18   19 1    
    38   18   22 1    
    39   18   83 1    
    40   19   20 am   BACKBONE|DICT|INTERRES
    41   19   21 2    
    42   20   84 1    
    43   20   85 1    
    44   22   23 am   BACKBONE|DICT|INTERRES
    45   22   86 1    
    46   23   24 2    
    47   23   25 1    
    48   25   26 1    
    49   25   27 1    
    50   25   87 1    
    51   26   88 1    
    52   26   89 1    
    53   26   90 1    
    54   27   28 am   BACKBONE|DICT|INTERRES
    55   27   91 1    
    56   28   29 2    
    57   28   30 1    
    58   30   31 1    
    59   30   32 1    
    60   30   92 1    
    61   31   93 1    
    62   31   94 1    
    63   31   95 1    
    64   32   33 am   BACKBONE|DICT|INTERRES
    65   32   96 1    
    66   33   34 2    
    67   33   35 1    
    68   35   36 1    
    69   35   37 1    
    70   35   97 1    
    71   36   98 1    
    72   36   99 1    
    73   36  100 1    
    74   37   38 am   BACKBONE|DICT|INTERRES
    75   37  101 1    
    76   38   39 2    
    77   38   40 1    
    78   40   41 1    
    79   40   42 1    
    80   40  102 1    
    81   41  103 1    
    82   41  104 1    
    83   41  105 1    
    84   42   43 am   BACKBONE|DICT|INTERRES
    85   42  106 1    
    86   43   44 2    
    87   43   45 1    
    88   45   46 1    
    89   45   49 1    
    90   45  107 1    
    91   46   47 1    
    92   46  108 1    
    93   46  109 1    
    94   47   48 1    
    95   48  110 1    
    96   48  111 1    
    97   49   50 am   BACKBONE|DICT|INTERRES
    98   49  112 1    
    99   50   51 2    
   100   50   52 1    
   101   52   53 1    
   102   52   54 1    
   103   52  113 1    
   104   53  114 1    
   105   53  115 1    
   106   53  116 1    
   107   54   55 am   BACKBONE|DICT|INTERRES
   108   54  117 1    
   109   55   56 2    
   110   55   57 1    
   111   57   58 1    
   112   57   59 1    
   113   57  118 1    
   114   58  119 1    
   115   58  120 1    
   116   58  121 1    
   117   59   60 am   BACKBONE|DICT|INTERRES
   118   59  122 1    
   119   60   61 2    
   120   60   62 1    
   121   62   63 1    
   122   62   64 1    
   123   62  123 1    
   124   63  124 1    
   125   63  125 1    
   126   63  126 1    
   127   64   65 am   BACKBONE|DICT|INTERRES
   128   64  127 1    
   129   65   66 2    
@<TRIPOS>SUBSTRUCTURE
     1 UNK         1 GROUP             0       ****    0 ROOT    
