@<TRIPOS>MOLECULE
3R135
127   129    1
SMALL
USER_CHARGES


@<TRIPOS>ATOM
      1 CA        -82.6062   27.4752  -70.0046 C.3       0 UNK        -0.1998 
      2 C         -83.1747   27.5629  -71.4131 C.2       0 UNK         0.4909 
      3 O         -84.2616   27.0455  -71.6703 O.2       0 UNK        -0.5240 
      4 N         -82.4437   28.2125  -72.3286 N.am      1 UNK        -0.4739 
      5 CA        -82.8079   28.3818  -73.7414 C.3       1 UNK         0.0864 
      6 C6        -82.0568   29.5802  -74.3826 C.3       11 UNK        -0.0881 
      7 S7        -80.2511   29.3511  -74.5461 S.3       11 UNK        -0.2682 
      8 C8        -79.6045   30.1292  -73.0329 C.3       11 UNK         0.0289 
      9 C9        -78.4977   29.2853  -72.4157 C.ar      11 UNK        -0.0687 
     10 C10       -78.8050   28.0522  -71.8342 C.ar      11 UNK        -0.0823 
     11 C11       -77.8107   27.2720  -71.2428 C.ar      11 UNK        -0.0830 
     12 C12       -76.4898   27.7272  -71.2437 C.ar      11 UNK        -0.1021 
     13 C13       -76.1651   28.9598  -71.8205 C.ar      11 UNK        -0.0753 
     14 C14       -77.1734   29.7357  -72.4044 C.ar      11 UNK        -0.0933 
     15 C15       -74.7260   29.4538  -71.7893 C.3       11 UNK         0.0166 
     16 S16       -73.8556   29.0674  -73.3373 S.3       11 UNK        -0.2615 
     17 C17       -74.1952   30.5554  -74.3500 C.3       11 UNK        -0.0865 
     18 CA        -72.9024   31.2579  -74.8398 C.3       10 UNK         0.0862 
     19 C         -72.1023   31.8747  -73.6514 C.2       10 UNK         0.5551 
     20 N         -70.9928   31.2813  -73.2229 N.am      10 UNK        -0.7319 
     21 O         -72.4972   32.9089  -73.1187 O.2       10 UNK        -0.5018 
     22 N         -72.1266   30.3649  -75.7107 N.am      10 UNK        -0.4509 
     23 C         -71.0390   30.7080  -76.4113 C.2       10 UNK         0.4899 
     24 O         -70.6760   31.8747  -76.5695 O.2       10 UNK        -0.4839 
     25 CA        -70.2071   29.5663  -77.0364 C.3       9 UNK         0.0222 
     26 CB        -68.6922   29.8302  -76.9097 C.3       9 UNK        -0.1966 
     27 N         -70.5286   28.2188  -76.5409 N.am      9 UNK        -0.4218 
     28 C         -70.4853   27.7500  -75.2844 C.2       9 UNK         0.5020 
     29 O         -70.1488   28.4367  -74.3166 O.2       9 UNK        -0.5274 
     30 CA        -70.9176   26.2781  -75.0791 C.3       8 UNK         0.0270 
     31 CB        -71.1162   25.9284  -73.5925 C.3       8 UNK        -0.1976 
     32 N         -72.1371   25.9147  -75.8169 N.am      8 UNK        -0.4313 
     33 C         -72.2192   25.7208  -77.1433 C.2       8 UNK         0.5041 
     34 O         -71.2469   25.8228  -77.8930 O.2       8 UNK        -0.5577 
     35 CA        -73.5922   25.3987  -77.7650 C.3       7 UNK         0.0284 
     36 CB        -73.6749   23.9072  -78.1272 C.3       7 UNK        -0.1958 
     37 N         -74.7409   25.7486  -76.9298 N.am      7 UNK        -0.4454 
     38 C         -75.0576   26.9753  -76.4917 C.2       7 UNK         0.5089 
     39 O         -74.4478   27.9954  -76.8136 O.2       7 UNK        -0.5125 
     40 CA        -76.2390   27.0715  -75.5067 C.3       6 UNK         0.0408 
     41 CB        -77.5017   27.5070  -76.2572 C.3       6 UNK        -0.1791 
     42 N         -76.5068   25.8305  -74.7635 N.am      6 UNK        -0.4762 
     43 C         -75.6246   25.2193  -73.9528 C.2       6 UNK         0.5007 
     44 O         -74.4816   25.6338  -73.7570 O.2       6 UNK        -0.5032 
     45 CA        -76.0323   23.8761  -73.3228 C.3       5 UNK         0.0783 
     46 C46       -76.6025   24.0163  -71.8906 C.3       11 UNK        -0.0857 
     47 S47       -78.3254   24.6077  -71.7939 S.3       11 UNK        -0.2512 
     48 C48       -78.1862   25.9556  -70.5815 C.3       11 UNK         0.0225 
     49 N         -76.8950   23.1018  -74.2198 N.am      5 UNK        -0.4615 
     50 C         -76.4298   22.2335  -75.1276 C.2       4 UNK         0.5053 
     51 O         -75.2369   21.9662  -75.2731 O.2       4 UNK        -0.5105 
     52 CA        -77.4628   21.5477  -76.0359 C.3       4 UNK         0.0263 
     53 CB        -78.1225   20.3653  -75.3077 C.3       4 UNK        -0.1981 
     54 N         -78.4988   22.4525  -76.5365 N.am      4 UNK        -0.4224 
     55 C         -78.2800   23.5235  -77.3134 C.2       3 UNK         0.4895 
     56 O         -77.1654   23.8919  -77.6832 O.2       3 UNK        -0.5091 
     57 CA        -79.5184   24.3264  -77.7499 C.3       3 UNK         0.0250 
     58 CB        -80.0400   23.8074  -79.0995 C.3       3 UNK        -0.1996 
     59 N         -80.6157   24.3330  -76.7756 N.am      3 UNK        -0.4254 
     60 C         -80.5310   24.7961  -75.5209 C.2       2 UNK         0.5004 
     61 O         -79.4864   25.1980  -75.0038 O.2       2 UNK        -0.5226 
     62 CA        -81.8216   24.7580  -74.6929 C.3       2 UNK         0.0269 
     63 CB        -81.7536   23.6480  -73.6316 C.3       2 UNK        -0.1926 
     64 N         -82.0361   26.0444  -74.0332 N.am      2 UNK        -0.4687 
     65 C         -82.6872   27.0829  -74.5779 C.2       1 UNK         0.5165 
     66 O         -83.2030   27.0424  -75.6966 O.2       1 UNK        -0.5079 
     67 H67       -82.4216   26.4346  -69.7392 H         1 UNK         0.0900 
     68 H68       -83.3155   27.8886  -69.2880 H         1 UNK         0.0900 
     69 H69       -81.6690   28.0225  -69.9057 H         1 UNK         0.0900 
     70 H70       -81.5709   28.6383  -72.0581 H         1 UNK         0.2959 
     71 H71       -83.8707   28.6346  -73.7624 H         1 UNK         0.1079 
     72 H72       -82.2567   30.4929  -73.8190 H         1 UNK         0.0837 
     73 H73       -82.4554   29.7707  -75.3809 H         1 UNK         0.0837 
     74 H74       -80.3987   30.2652  -72.2984 H         1 UNK         0.0685 
     75 H75       -79.2428   31.1287  -73.2788 H         1 UNK         0.0685 
     76 H76       -79.8202   27.6880  -71.8442 H         1 UNK         0.1434 
     77 H77       -75.7136   27.1262  -70.7903 H         1 UNK         0.1329 
     78 H78       -76.9282   30.6907  -72.8465 H         1 UNK         0.1335 
     79 H79       -74.1886   28.9777  -70.9678 H         1 UNK         0.0680 
     80 H80       -74.6911   30.5251  -71.5863 H         1 UNK         0.0680 
     81 H81       -74.7973   30.2505  -75.2073 H         1 UNK         0.1032 
     82 H82       -74.8164   31.2614  -73.7974 H         1 UNK         0.1032 
     83 H83       -73.2104   32.0993  -75.4632 H         1 UNK         0.0461 
     84 H84       -70.4770   31.6827  -72.4568 H         1 UNK         0.3453 
     85 H85       -70.6955   30.4037  -73.6337 H         1 UNK         0.3453 
     86 H86       -72.3604   29.3849  -75.6388 H         1 UNK         0.2984 
     87 H87       -70.4559   29.5609  -78.0983 H         1 UNK         0.0554 
     88 H88       -68.1099   29.0371  -77.3786 H         1 UNK         0.0847 
     89 H89       -68.3817   29.9027  -75.8668 H         1 UNK         0.0847 
     90 H90       -68.4117   30.7647  -77.3973 H         1 UNK         0.0847 
     91 H91       -70.8050   27.5429  -77.2506 H         1 UNK         0.3141 
     92 H92       -70.0999   25.6597  -75.4547 H         1 UNK         0.0743 
     93 H93       -70.2019   26.0977  -73.0223 H         1 UNK         0.0784 
     94 H94       -71.9009   26.5368  -73.1403 H         1 UNK         0.0784 
     95 H95       -71.3888   24.8810  -73.4623 H         1 UNK         0.0784 
     96 H96       -72.9877   25.8530  -75.2655 H         1 UNK         0.3213 
     97 H97       -73.6710   25.9810  -78.6852 H         1 UNK         0.0855 
     98 H98       -73.6443   23.2749  -77.2388 H         1 UNK         0.0814 
     99 H99       -72.8427   23.6117  -78.7677 H         1 UNK         0.0814 
    100 H100      -74.5934   23.6797  -78.6685 H         1 UNK         0.0814 
    101 H101      -75.3539   24.9883  -76.6634 H         1 UNK         0.3105 
    102 H102      -76.0073   27.8403  -74.7698 H         1 UNK         0.0547 
    103 H103      -78.3674   27.5180  -75.5984 H         1 UNK         0.0837 
    104 H104      -77.3864   28.5129  -76.6622 H         1 UNK         0.0837 
    105 H105      -77.7196   26.8421  -77.0909 H         1 UNK         0.0837 
    106 H106      -77.4457   25.4510  -74.8444 H         1 UNK         0.3020 
    107 H107      -75.0929   23.3303  -73.2026 H         1 UNK         0.1245 
    108 H108      -75.9507   24.6516  -71.2885 H         1 UNK         0.0781 
    109 H109      -76.5774   23.0399  -71.4045 H         1 UNK         0.0781 
    110 H110      -77.4714   25.6920  -69.8005 H         1 UNK         0.0836 
    111 H111      -79.1474   26.0666  -70.0772 H         1 UNK         0.0836 
    112 H112      -77.8853   23.2991  -74.1722 H         1 UNK         0.3022 
    113 H113      -76.9260   21.1563  -76.9028 H         1 UNK         0.0747 
    114 H114      -78.7812   19.8066  -75.9729 H         1 UNK         0.0793 
    115 H115      -77.3705   19.6664  -74.9385 H         1 UNK         0.0793 
    116 H116      -78.7106   20.6941  -74.4498 H         1 UNK         0.0793 
    117 H117      -79.4524   22.2368  -76.2868 H         1 UNK         0.3047 
    118 H118      -79.2055   25.3611  -77.8903 H         1 UNK         0.0822 
    119 H119      -79.2499   23.8150  -79.8520 H         1 UNK         0.0807 
    120 H120      -80.8501   24.4304  -79.4793 H         1 UNK         0.0807 
    121 H121      -80.4086   22.7835  -79.0249 H         1 UNK         0.0807 
    122 H122      -81.5112   24.0092  -77.1126 H         1 UNK         0.2946 
    123 H123      -82.6675   24.5456  -75.3511 H         1 UNK         0.1144 
    124 H124      -81.6014   22.6720  -74.0941 H         1 UNK         0.0793 
    125 H125      -82.6785   23.5935  -73.0571 H         1 UNK         0.0793 
    126 H126      -80.9349   23.8073  -72.9302 H         1 UNK         0.0793 
    127 H127      -81.5919   26.1729  -73.1368 H         1 UNK         0.2896 
@<TRIPOS>BOND
     1    1    2 1    
     2    1   67 1    
     3    1   68 1    
     4    1   69 1    
     5    2    3 2    
     6    2    4 am   BACKBONE|DICT|INTERRES
     7    4    5 1    
     8    4   70 1    
     9    5    6 1    
    10    5   65 1    
    11    5   71 1    
    12    6    7 1    
    13    6   72 1    
    14    6   73 1    
    15    7    8 1    
    16    8    9 1    
    17    8   74 1    
    18    8   75 1    
    19    9   10 ar   
    20    9   14 ar   
    21   10   11 ar   
    22   10   76 1    
    23   11   12 ar   
    24   11   48 1    
    25   12   13 ar   
    26   12   77 1    
    27   13   14 ar   
    28   13   15 1    
    29   14   78 1    
    30   15   16 1    
    31   15   79 1    
    32   15   80 1    
    33   16   17 1    
    34   17   18 1    
    35   17   81 1    
    36   17   82 1    
    37   18   19 1    
    38   18   22 1    
    39   18   83 1    
    40   19   20 am   BACKBONE|DICT|INTERRES
    41   19   21 2    
    42   20   84 1    
    43   20   85 1    
    44   22   23 am   BACKBONE|DICT|INTERRES
    45   22   86 1    
    46   23   24 2    
    47   23   25 1    
    48   25   26 1    
    49   25   27 1    
    50   25   87 1    
    51   26   88 1    
    52   26   89 1    
    53   26   90 1    
    54   27   28 am   BACKBONE|DICT|INTERRES
    55   27   91 1    
    56   28   29 2    
    57   28   30 1    
    58   30   31 1    
    59   30   32 1    
    60   30   92 1    
    61   31   93 1    
    62   31   94 1    
    63   31   95 1    
    64   32   33 am   BACKBONE|DICT|INTERRES
    65   32   96 1    
    66   33   34 2    
    67   33   35 1    
    68   35   36 1    
    69   35   37 1    
    70   35   97 1    
    71   36   98 1    
    72   36   99 1    
    73   36  100 1    
    74   37   38 am   BACKBONE|DICT|INTERRES
    75   37  101 1    
    76   38   39 2    
    77   38   40 1    
    78   40   41 1    
    79   40   42 1    
    80   40  102 1    
    81   41  103 1    
    82   41  104 1    
    83   41  105 1    
    84   42   43 am   BACKBONE|DICT|INTERRES
    85   42  106 1    
    86   43   44 2    
    87   43   45 1    
    88   45   46 1    
    89   45   49 1    
    90   45  107 1    
    91   46   47 1    
    92   46  108 1    
    93   46  109 1    
    94   47   48 1    
    95   48  110 1    
    96   48  111 1    
    97   49   50 am   BACKBONE|DICT|INTERRES
    98   49  112 1    
    99   50   51 2    
   100   50   52 1    
   101   52   53 1    
   102   52   54 1    
   103   52  113 1    
   104   53  114 1    
   105   53  115 1    
   106   53  116 1    
   107   54   55 am   BACKBONE|DICT|INTERRES
   108   54  117 1    
   109   55   56 2    
   110   55   57 1    
   111   57   58 1    
   112   57   59 1    
   113   57  118 1    
   114   58  119 1    
   115   58  120 1    
   116   58  121 1    
   117   59   60 am   BACKBONE|DICT|INTERRES
   118   59  122 1    
   119   60   61 2    
   120   60   62 1    
   121   62   63 1    
   122   62   64 1    
   123   62  123 1    
   124   63  124 1    
   125   63  125 1    
   126   63  126 1    
   127   64   65 am   BACKBONE|DICT|INTERRES
   128   64  127 1    
   129   65   66 2    
@<TRIPOS>SUBSTRUCTURE
     1 UNK         1 GROUP             0       ****    0 ROOT    
