@<TRIPOS>MOLECULE
3R135
127   129    1
SMALL
USER_CHARGES


@<TRIPOS>ATOM
      1 CA        -76.5275   29.9356  -75.5125 C.3       0 UNK        -0.1998 
      2 C         -77.4753   28.9573  -74.8360 C.2       0 UNK         0.4909 
      3 O         -77.1613   27.7728  -74.7282 O.2       0 UNK        -0.5240 
      4 N         -78.6413   29.4393  -74.3883 N.am      1 UNK        -0.4739 
      5 CA        -79.6836   28.6272  -73.7557 C.3       1 UNK         0.0864 
      6 C6        -80.6554   29.4725  -72.8889 C.3       11 UNK        -0.0881 
      7 S7        -79.8483   30.4853  -71.6079 S.3       11 UNK        -0.2682 
      8 C8        -79.5104   29.2592  -70.2993 C.3       11 UNK         0.0289 
      9 C9        -78.1177   28.6516  -70.4216 C.ar      11 UNK        -0.0687 
     10 C10       -77.9354   27.2647  -70.4044 C.ar      11 UNK        -0.0823 
     11 C11       -76.6482   26.7193  -70.4647 C.ar      11 UNK        -0.0830 
     12 C12       -75.5460   27.5750  -70.5700 C.ar      11 UNK        -0.1021 
     13 C13       -75.7077   28.9628  -70.6014 C.ar      11 UNK        -0.0753 
     14 C14       -77.0013   29.4889  -70.5039 C.ar      11 UNK        -0.0933 
     15 C15       -74.4542   29.8332  -70.7345 C.3       11 UNK         0.0166 
     16 S16       -74.7149   31.6448  -70.7641 S.3       11 UNK        -0.2615 
     17 C17       -75.5111   31.8799  -72.3959 C.3       11 UNK        -0.0865 
     18 CA        -74.5765   32.4920  -73.4721 C.3       10 UNK         0.0862 
     19 C         -74.3161   34.0108  -73.2504 C.2       10 UNK         0.5551 
     20 N         -73.0729   34.4655  -73.1479 N.am      10 UNK        -0.7319 
     21 O         -75.2612   34.7935  -73.1904 O.2       10 UNK        -0.5018 
     22 N         -73.3661   31.6763  -73.6391 N.am      10 UNK        -0.4509 
     23 C         -72.6939   31.4971  -74.7802 C.2       10 UNK         0.4899 
     24 O         -73.0203   31.9963  -75.8575 O.2       10 UNK        -0.4839 
     25 CA        -71.4342   30.6113  -74.7174 C.3       9 UNK         0.0222 
     26 CB        -70.8977   30.3664  -73.2868 C.3       9 UNK        -0.1966 
     27 N         -71.6273   29.3395  -75.4225 N.am      9 UNK        -0.4218 
     28 C         -72.5530   28.4023  -75.1682 C.2       9 UNK         0.5020 
     29 O         -73.3826   28.4679  -74.2591 O.2       9 UNK        -0.5274 
     30 CA        -72.4906   27.1445  -76.0468 C.3       8 UNK         0.0270 
     31 CB        -71.7754   26.0049  -75.3030 C.3       8 UNK        -0.1976 
     32 N         -73.8212   26.6921  -76.4503 N.am      8 UNK        -0.4313 
     33 C         -74.5660   27.2770  -77.4008 C.2       8 UNK         0.5041 
     34 O         -74.2218   28.3041  -77.9897 O.2       8 UNK        -0.5577 
     35 CA        -75.8937   26.5847  -77.7917 C.3       7 UNK         0.0284 
     36 CB        -76.3513   26.9258  -79.2251 C.3       7 UNK        -0.1958 
     37 N         -75.8758   25.1319  -77.5877 N.am      7 UNK        -0.4454 
     38 C         -75.0063   24.2465  -78.1023 C.2       7 UNK         0.5089 
     39 O         -74.1806   24.5253  -78.9730 O.2       7 UNK        -0.5125 
     40 CA        -75.0393   22.8136  -77.5284 C.3       6 UNK         0.0408 
     41 CB        -73.6290   22.1939  -77.4389 C.3       6 UNK        -0.1791 
     42 N         -75.7320   22.6943  -76.2366 N.am      6 UNK        -0.4762 
     43 C         -75.4399   23.3164  -75.0795 C.2       6 UNK         0.5007 
     44 O         -74.4860   24.0860  -74.9596 O.2       6 UNK        -0.5032 
     45 CA        -76.3971   23.0847  -73.8848 C.3       5 UNK         0.0783 
     46 C46       -76.6296   24.3785  -73.0538 C.3       11 UNK        -0.0857 
     47 S47       -75.4226   24.5256  -71.6953 S.3       11 UNK        -0.2512 
     48 C48       -76.4390   25.2129  -70.3467 C.3       11 UNK         0.0225 
     49 N         -77.6683   22.5251  -74.3527 N.am      5 UNK        -0.4615 
     50 C         -78.0809   21.2616  -74.1821 C.2       4 UNK         0.5053 
     51 O         -77.4761   20.4291  -73.5070 O.2       4 UNK        -0.5105 
     52 CA        -79.3735   20.8386  -74.9115 C.3       4 UNK         0.0263 
     53 CB        -80.5738   20.9072  -73.9538 C.3       4 UNK        -0.1981 
     54 N         -79.6643   21.6434  -76.1031 N.am      4 UNK        -0.4224 
     55 C         -78.8938   21.7070  -77.1998 C.2       3 UNK         0.4895 
     56 O         -77.9131   20.9870  -77.3813 O.2       3 UNK        -0.5091 
     57 CA        -79.2169   22.8060  -78.2318 C.3       3 UNK         0.0250 
     58 CB        -79.9861   22.2147  -79.4234 C.3       3 UNK        -0.1996 
     59 N         -79.9702   23.9396  -77.6798 N.am      3 UNK        -0.4254 
     60 C         -79.5485   24.7457  -76.6948 C.2       2 UNK         0.5004 
     61 O         -78.4364   24.6593  -76.1650 O.2       2 UNK        -0.5226 
     62 CA        -80.5775   25.7477  -76.1635 C.3       2 UNK         0.0269 
     63 CB        -81.7423   25.0102  -75.4672 C.3       2 UNK        -0.1926 
     64 N         -79.9409   26.6631  -75.2184 N.am      2 UNK        -0.4687 
     65 C         -80.4568   27.8337  -74.8302 C.2       1 UNK         0.5165 
     66 O         -81.4997   28.2969  -75.2984 O.2       1 UNK        -0.5079 
     67 H67       -76.8767   30.9644  -75.4304 H         1 UNK         0.0900 
     68 H68       -76.4290   29.6935  -76.5700 H         1 UNK         0.0900 
     69 H69       -75.5389   29.8735  -75.0590 H         1 UNK         0.0900 
     70 H70       -78.8639   30.4169  -74.5074 H         1 UNK         0.2959 
     71 H71       -79.2021   27.9035  -73.0941 H         1 UNK         0.1079 
     72 H72       -81.2233   30.1622  -73.5166 H         1 UNK         0.0837 
     73 H73       -81.3968   28.8301  -72.4097 H         1 UNK         0.0837 
     74 H74       -79.5813   29.7588  -69.3323 H         1 UNK         0.0685 
     75 H75       -80.2818   28.4879  -70.3020 H         1 UNK         0.0685 
     76 H76       -78.7928   26.6118  -70.3140 H         1 UNK         0.1434 
     77 H77       -74.5506   27.1548  -70.6218 H         1 UNK         0.1329 
     78 H78       -77.1610   30.5566  -70.4971 H         1 UNK         0.1335 
     79 H79       -73.7891   29.6069  -69.9000 H         1 UNK         0.0680 
     80 H80       -73.9214   29.5405  -71.6404 H         1 UNK         0.0680 
     81 H81       -76.4035   32.4945  -72.2629 H         1 UNK         0.1032 
     82 H82       -75.8809   30.9175  -72.7516 H         1 UNK         0.1032 
     83 H83       -75.1277   32.4475  -74.4129 H         1 UNK         0.0461 
     84 H84       -72.2928   33.8313  -73.2012 H         1 UNK         0.3453 
     85 H85       -72.9160   35.4517  -73.0114 H         1 UNK         0.3453 
     86 H86       -73.0271   31.2286  -72.8010 H         1 UNK         0.2984 
     87 H87       -70.6598   31.1509  -75.2648 H         1 UNK         0.0554 
     88 H88       -69.9465   29.8346  -73.3158 H         1 UNK         0.0847 
     89 H89       -71.5814   29.7728  -72.6793 H         1 UNK         0.0847 
     90 H90       -70.7174   31.3069  -72.7645 H         1 UNK         0.0847 
     91 H91       -71.0106   29.1887  -76.2091 H         1 UNK         0.3141 
     92 H92       -71.9223   27.3686  -76.9522 H         1 UNK         0.0743 
     93 H93       -72.2991   25.7356  -74.3843 H         1 UNK         0.0784 
     94 H94       -71.7049   25.1095  -75.9211 H         1 UNK         0.0784 
     95 H95       -70.7600   26.2926  -75.0277 H         1 UNK         0.0784 
     96 H96       -74.1810   25.8699  -75.9752 H         1 UNK         0.3213 
     97 H97       -76.6514   26.9702  -77.1109 H         1 UNK         0.0855 
     98 H98       -76.5049   27.9993  -79.3414 H         1 UNK         0.0814 
     99 H99       -77.2950   26.4367  -79.4665 H         1 UNK         0.0814 
    100 H100      -75.6137   26.6206  -79.9678 H         1 UNK         0.0814 
    101 H101      -76.5469   24.7926  -76.9047 H         1 UNK         0.3105 
    102 H102      -75.6157   22.2201  -78.2388 H         1 UNK         0.0547 
    103 H103      -73.1600   22.1395  -78.4220 H         1 UNK         0.0837 
    104 H104      -72.9696   22.7798  -76.7977 H         1 UNK         0.0837 
    105 H105      -73.6659   21.1785  -77.0447 H         1 UNK         0.0837 
    106 H106      -76.5381   22.0795  -76.2526 H         1 UNK         0.3020 
    107 H107      -75.9006   22.3460  -73.2516 H         1 UNK         0.1245 
    108 H108      -77.6285   24.3669  -72.6153 H         1 UNK         0.0781 
    109 H109      -76.5958   25.2794  -73.6707 H         1 UNK         0.0781 
    110 H110      -75.9323   25.0140  -69.4015 H         1 UNK         0.0836 
    111 H111      -77.3903   24.6811  -70.2947 H         1 UNK         0.0836 
    112 H112      -78.2061   23.1484  -74.9473 H         1 UNK         0.3022 
    113 H113      -79.2451   19.8023  -75.2313 H         1 UNK         0.0747 
    114 H114      -81.4835   20.5394  -74.4289 H         1 UNK         0.0793 
    115 H115      -80.4021   20.2923  -73.0690 H         1 UNK         0.0793 
    116 H116      -80.7604   21.9258  -73.6107 H         1 UNK         0.0793 
    117 H117      -80.4639   22.2563  -76.0496 H         1 UNK         0.3047 
    118 H118      -78.2635   23.1934  -78.5976 H         1 UNK         0.0822 
    119 H119      -80.1399   22.9584  -80.2056 H         1 UNK         0.0807 
    120 H120      -80.9630   21.8320  -79.1251 H         1 UNK         0.0807 
    121 H121      -79.4349   21.3867  -79.8718 H         1 UNK         0.0807 
    122 H122      -80.8975   24.0811  -78.0556 H         1 UNK         0.2946 
    123 H123      -80.9559   26.3203  -77.0136 H         1 UNK         0.1144 
    124 H124      -82.2490   24.3234  -76.1460 H         1 UNK         0.0793 
    125 H125      -82.4999   25.7068  -75.1081 H         1 UNK         0.0793 
    126 H126      -81.3952   24.4301  -74.6111 H         1 UNK         0.0793 
    127 H127      -79.0129   26.3917  -74.9081 H         1 UNK         0.2896 
@<TRIPOS>BOND
     1    1    2 1    
     2    1   67 1    
     3    1   68 1    
     4    1   69 1    
     5    2    3 2    
     6    2    4 am   BACKBONE|DICT|INTERRES
     7    4    5 1    
     8    4   70 1    
     9    5    6 1    
    10    5   65 1    
    11    5   71 1    
    12    6    7 1    
    13    6   72 1    
    14    6   73 1    
    15    7    8 1    
    16    8    9 1    
    17    8   74 1    
    18    8   75 1    
    19    9   10 ar   
    20    9   14 ar   
    21   10   11 ar   
    22   10   76 1    
    23   11   12 ar   
    24   11   48 1    
    25   12   13 ar   
    26   12   77 1    
    27   13   14 ar   
    28   13   15 1    
    29   14   78 1    
    30   15   16 1    
    31   15   79 1    
    32   15   80 1    
    33   16   17 1    
    34   17   18 1    
    35   17   81 1    
    36   17   82 1    
    37   18   19 1    
    38   18   22 1    
    39   18   83 1    
    40   19   20 am   BACKBONE|DICT|INTERRES
    41   19   21 2    
    42   20   84 1    
    43   20   85 1    
    44   22   23 am   BACKBONE|DICT|INTERRES
    45   22   86 1    
    46   23   24 2    
    47   23   25 1    
    48   25   26 1    
    49   25   27 1    
    50   25   87 1    
    51   26   88 1    
    52   26   89 1    
    53   26   90 1    
    54   27   28 am   BACKBONE|DICT|INTERRES
    55   27   91 1    
    56   28   29 2    
    57   28   30 1    
    58   30   31 1    
    59   30   32 1    
    60   30   92 1    
    61   31   93 1    
    62   31   94 1    
    63   31   95 1    
    64   32   33 am   BACKBONE|DICT|INTERRES
    65   32   96 1    
    66   33   34 2    
    67   33   35 1    
    68   35   36 1    
    69   35   37 1    
    70   35   97 1    
    71   36   98 1    
    72   36   99 1    
    73   36  100 1    
    74   37   38 am   BACKBONE|DICT|INTERRES
    75   37  101 1    
    76   38   39 2    
    77   38   40 1    
    78   40   41 1    
    79   40   42 1    
    80   40  102 1    
    81   41  103 1    
    82   41  104 1    
    83   41  105 1    
    84   42   43 am   BACKBONE|DICT|INTERRES
    85   42  106 1    
    86   43   44 2    
    87   43   45 1    
    88   45   46 1    
    89   45   49 1    
    90   45  107 1    
    91   46   47 1    
    92   46  108 1    
    93   46  109 1    
    94   47   48 1    
    95   48  110 1    
    96   48  111 1    
    97   49   50 am   BACKBONE|DICT|INTERRES
    98   49  112 1    
    99   50   51 2    
   100   50   52 1    
   101   52   53 1    
   102   52   54 1    
   103   52  113 1    
   104   53  114 1    
   105   53  115 1    
   106   53  116 1    
   107   54   55 am   BACKBONE|DICT|INTERRES
   108   54  117 1    
   109   55   56 2    
   110   55   57 1    
   111   57   58 1    
   112   57   59 1    
   113   57  118 1    
   114   58  119 1    
   115   58  120 1    
   116   58  121 1    
   117   59   60 am   BACKBONE|DICT|INTERRES
   118   59  122 1    
   119   60   61 2    
   120   60   62 1    
   121   62   63 1    
   122   62   64 1    
   123   62  123 1    
   124   63  124 1    
   125   63  125 1    
   126   63  126 1    
   127   64   65 am   BACKBONE|DICT|INTERRES
   128   64  127 1    
   129   65   66 2    
@<TRIPOS>SUBSTRUCTURE
     1 UNK         1 GROUP             0       ****    0 ROOT    
