@<TRIPOS>MOLECULE
3R135
127   129    1
SMALL
USER_CHARGES


@<TRIPOS>ATOM
      1 CA        -85.0291   26.2953  -69.6307 C.3       0 UNK        -0.1998 
      2 C         -85.0124   26.9356  -71.0105 C.2       0 UNK         0.4909 
      3 O         -86.0379   27.4466  -71.4616 O.2       0 UNK        -0.5240 
      4 N         -83.8558   26.9094  -71.6857 N.am      1 UNK        -0.4739 
      5 CA        -83.6571   27.4860  -73.0239 C.3       1 UNK         0.0864 
      6 C6        -82.1588   27.7627  -73.3186 C.3       11 UNK        -0.0881 
      7 S7        -81.4816   29.0376  -72.2066 S.3       11 UNK        -0.2682 
      8 C8        -80.3868   28.0622  -71.1170 C.3       11 UNK         0.0289 
      9 C9        -78.9180   27.9966  -71.5424 C.ar      11 UNK        -0.0687 
     10 C10       -78.1306   26.9407  -71.0688 C.ar      11 UNK        -0.0823 
     11 C11       -76.7557   26.9067  -71.3170 C.ar      11 UNK        -0.0830 
     12 C12       -76.1720   27.9376  -72.0529 C.ar      11 UNK        -0.1021 
     13 C13       -76.9432   28.9710  -72.5917 C.ar      11 UNK        -0.0753 
     14 C14       -78.3147   28.9993  -72.3165 C.ar      11 UNK        -0.0933 
     15 C15       -76.3177   30.0867  -73.4326 C.3       11 UNK         0.0166 
     16 S16       -74.9520   29.5385  -74.5226 S.3       11 UNK        -0.2615 
     17 C17       -73.5154   29.6136  -73.3941 C.3       11 UNK        -0.0865 
     18 CA        -72.3506   30.4627  -73.9603 C.3       10 UNK         0.0862 
     19 C         -71.3381   30.8234  -72.8300 C.2       10 UNK         0.5551 
     20 N         -70.1029   30.3358  -72.8416 N.am      10 UNK        -0.7319 
     21 O         -71.6870   31.5701  -71.9189 O.2       10 UNK        -0.5018 
     22 N         -71.7531   29.8109  -75.1354 N.am      10 UNK        -0.4509 
     23 C         -70.9091   30.3974  -75.9940 C.2       10 UNK         0.4899 
     24 O         -70.6555   31.6031  -75.9846 O.2       10 UNK        -0.4839 
     25 CA        -70.2197   29.4740  -77.0209 C.3       9 UNK         0.0222 
     26 CB        -68.8874   30.0542  -77.5401 C.3       9 UNK        -0.1966 
     27 N         -70.0289   28.0971  -76.5392 N.am      9 UNK        -0.4218 
     28 C         -69.3629   27.7001  -75.4402 C.2       9 UNK         0.5020 
     29 O         -68.7769   28.4791  -74.6871 O.2       9 UNK        -0.5274 
     30 CA        -69.3863   26.2019  -75.0784 C.3       8 UNK         0.0270 
     31 CB        -69.8755   25.9988  -73.6322 C.3       8 UNK        -0.1976 
     32 N         -70.2478   25.4292  -75.9751 N.am      8 UNK        -0.4313 
     33 C         -69.8261   24.7428  -77.0470 C.2       8 UNK         0.5041 
     34 O         -68.6404   24.6094  -77.3512 O.2       8 UNK        -0.5577 
     35 CA        -70.9062   24.1214  -77.9560 C.3       7 UNK         0.0284 
     36 CB        -71.1182   22.6407  -77.6017 C.3       7 UNK        -0.1958 
     37 N         -72.1950   24.8196  -77.9017 N.am      7 UNK        -0.4454 
     38 C         -72.3957   26.0971  -78.2558 C.2       7 UNK         0.5089 
     39 O         -71.5242   26.8108  -78.7500 O.2       7 UNK        -0.5125 
     40 CA        -73.7709   26.7078  -77.9374 C.3       6 UNK         0.0408 
     41 CB        -74.6672   26.7004  -79.1847 C.3       6 UNK        -0.1791 
     42 N         -74.4780   26.0552  -76.8309 N.am      6 UNK        -0.4762 
     43 C         -74.0579   25.9608  -75.5609 C.2       6 UNK         0.5007 
     44 O         -72.9595   26.3760  -75.1824 O.2       6 UNK        -0.5032 
     45 CA        -75.0361   25.2920  -74.5667 C.3       5 UNK         0.0783 
     46 C46       -74.4459   25.1605  -73.1368 C.3       11 UNK        -0.0857 
     47 S47       -75.6247   24.4306  -71.9422 S.3       11 UNK        -0.2512 
     48 C48       -75.8874   25.7885  -70.7521 C.3       11 UNK         0.0225 
     49 N         -76.3433   25.9627  -74.5835 N.am      5 UNK        -0.4615 
     50 C         -77.2912   25.7696  -75.5058 C.2       4 UNK         0.5053 
     51 O         -77.1423   25.0359  -76.4875 O.2       4 UNK        -0.5105 
     52 CA        -78.5956   26.5597  -75.3391 C.3       4 UNK         0.0263 
     53 CB        -78.4775   27.9407  -76.0028 C.3       4 UNK        -0.1981 
     54 N         -79.6988   25.8259  -75.9591 N.am      4 UNK        -0.4224 
     55 C         -80.3923   24.8631  -75.3446 C.2       3 UNK         0.4895 
     56 O         -80.2673   24.5745  -74.1517 O.2       3 UNK        -0.5091 
     57 CA        -81.4146   24.0987  -76.1901 C.3       3 UNK         0.0250 
     58 CB        -80.9322   22.6736  -76.5114 C.3       3 UNK        -0.1996 
     59 N         -82.6385   24.0587  -75.4058 N.am      3 UNK        -0.4254 
     60 C         -83.8869   24.0407  -75.8827 C.2       2 UNK         0.5004 
     61 O         -84.1763   23.8505  -77.0644 O.2       2 UNK        -0.5226 
     62 CA        -84.9953   24.3510  -74.8600 C.3       2 UNK         0.0269 
     63 CB        -85.4567   23.0701  -74.1462 C.3       2 UNK        -0.1926 
     64 N         -84.5624   25.3413  -73.8643 N.am      2 UNK        -0.4687 
     65 C         -84.2747   26.6235  -74.1451 C.2       1 UNK         0.5165 
     66 O         -84.4579   27.1291  -75.2535 O.2       1 UNK        -0.5079 
     67 H67       -85.7561   25.4842  -69.6020 H         1 UNK         0.0900 
     68 H68       -85.3109   27.0324  -68.8793 H         1 UNK         0.0900 
     69 H69       -84.0556   25.8885  -69.3574 H         1 UNK         0.0900 
     70 H70       -83.0425   26.4869  -71.2623 H         1 UNK         0.2959 
     71 H71       -84.1849   28.4423  -73.0588 H         1 UNK         0.1079 
     72 H72       -81.5672   26.8487  -73.2476 H         1 UNK         0.0837 
     73 H73       -82.0250   28.1272  -74.3394 H         1 UNK         0.0837 
     74 H74       -80.7924   27.0560  -71.0032 H         1 UNK         0.0685 
     75 H75       -80.4209   28.5138  -70.1248 H         1 UNK         0.0685 
     76 H76       -78.5824   26.1609  -70.4704 H         1 UNK         0.1434 
     77 H77       -75.1072   27.9276  -72.2032 H         1 UNK         0.1329 
     78 H78       -78.9042   29.8256  -72.6874 H         1 UNK         0.1335 
     79 H79       -75.9766   30.8885  -72.7767 H         1 UNK         0.0680 
     80 H80       -77.0828   30.5278  -74.0734 H         1 UNK         0.0680 
     81 H81       -73.8466   30.0094  -72.4319 H         1 UNK         0.1032 
     82 H82       -73.1689   28.5974  -73.1971 H         1 UNK         0.1032 
     83 H83       -72.7660   31.4149  -74.2960 H         1 UNK         0.0461 
     84 H84       -69.4717   30.5900  -72.0991 H         1 UNK         0.3453 
     85 H85       -69.7785   29.7238  -73.5841 H         1 UNK         0.3453 
     86 H86       -71.9220   28.8189  -75.2237 H         1 UNK         0.2984 
     87 H87       -70.9025   29.4065  -77.8688 H         1 UNK         0.0554 
     88 H88       -68.4279   29.3947  -78.2763 H         1 UNK         0.0847 
     89 H89       -68.1709   30.2067  -76.7323 H         1 UNK         0.0847 
     90 H90       -69.0410   31.0192  -78.0246 H         1 UNK         0.0847 
     91 H91       -70.4658   27.3872  -77.1175 H         1 UNK         0.3141 
     92 H92       -68.3585   25.8388  -75.1418 H         1 UNK         0.0743 
     93 H93       -69.2128   26.4931  -72.9205 H         1 UNK         0.0784 
     94 H94       -70.8756   26.4065  -73.4806 H         1 UNK         0.0784 
     95 H95       -69.9006   24.9419  -73.3667 H         1 UNK         0.0784 
     96 H96       -71.2455   25.5151  -75.8034 H         1 UNK         0.3213 
     97 H97       -70.5402   24.1811  -78.9834 H         1 UNK         0.0855 
     98 H98       -71.5048   22.5180  -76.5891 H         1 UNK         0.0814 
     99 H99       -70.1794   22.0879  -77.6605 H         1 UNK         0.0814 
    100 H100      -71.8158   22.1626  -78.2897 H         1 UNK         0.0814 
    101 H101      -72.9753   24.3121  -77.5109 H         1 UNK         0.3105 
    102 H102      -73.6024   27.7464  -77.6445 H         1 UNK         0.0547 
    103 H103      -74.9009   25.6853  -79.5082 H         1 UNK         0.0837 
    104 H104      -75.6082   27.2190  -78.9999 H         1 UNK         0.0837 
    105 H105      -74.1796   27.2054  -80.0198 H         1 UNK         0.0837 
    106 H106      -75.4044   25.6877  -77.0328 H         1 UNK         0.3020 
    107 H107      -75.1830   24.2726  -74.9319 H         1 UNK         0.1245 
    108 H108      -74.0805   26.1168  -72.7671 H         1 UNK         0.0781 
    109 H109      -73.5676   24.5128  -73.1624 H         1 UNK         0.0781 
    110 H110      -76.3548   25.3766  -69.8564 H         1 UNK         0.0836 
    111 H111      -74.9233   26.1838  -70.4283 H         1 UNK         0.0836 
    112 H112      -76.5223   26.5988  -73.8176 H         1 UNK         0.3022 
    113 H113      -78.7946   26.6976  -74.2737 H         1 UNK         0.0747 
    114 H114      -77.6555   28.5119  -75.5720 H         1 UNK         0.0793 
    115 H115      -79.3860   28.5263  -75.8602 H         1 UNK         0.0793 
    116 H116      -78.2899   27.8620  -77.0744 H         1 UNK         0.0793 
    117 H117      -79.8272   25.9667  -76.9509 H         1 UNK         0.3047 
    118 H118      -81.5958   24.6421  -77.1204 H         1 UNK         0.0822 
    119 H119      -80.0019   22.6970  -77.0805 H         1 UNK         0.0807 
    120 H120      -81.6661   22.1320  -77.1084 H         1 UNK         0.0807 
    121 H121      -80.7471   22.0970  -75.6042 H         1 UNK         0.0807 
    122 H122      -82.4980   24.2234  -74.4173 H         1 UNK         0.2946 
    123 H123      -85.8434   24.7668  -75.4092 H         1 UNK         0.1144 
    124 H124      -84.6521   22.6151  -73.5671 H         1 UNK         0.0793 
    125 H125      -85.8007   22.3263  -74.8664 H         1 UNK         0.0793 
    126 H126      -86.2870   23.2709  -73.4688 H         1 UNK         0.0793 
    127 H127      -84.4101   25.0139  -72.9213 H         1 UNK         0.2896 
@<TRIPOS>BOND
     1    1    2 1    
     2    1   67 1    
     3    1   68 1    
     4    1   69 1    
     5    2    3 2    
     6    2    4 am   BACKBONE|DICT|INTERRES
     7    4    5 1    
     8    4   70 1    
     9    5    6 1    
    10    5   65 1    
    11    5   71 1    
    12    6    7 1    
    13    6   72 1    
    14    6   73 1    
    15    7    8 1    
    16    8    9 1    
    17    8   74 1    
    18    8   75 1    
    19    9   10 ar   
    20    9   14 ar   
    21   10   11 ar   
    22   10   76 1    
    23   11   12 ar   
    24   11   48 1    
    25   12   13 ar   
    26   12   77 1    
    27   13   14 ar   
    28   13   15 1    
    29   14   78 1    
    30   15   16 1    
    31   15   79 1    
    32   15   80 1    
    33   16   17 1    
    34   17   18 1    
    35   17   81 1    
    36   17   82 1    
    37   18   19 1    
    38   18   22 1    
    39   18   83 1    
    40   19   20 am   BACKBONE|DICT|INTERRES
    41   19   21 2    
    42   20   84 1    
    43   20   85 1    
    44   22   23 am   BACKBONE|DICT|INTERRES
    45   22   86 1    
    46   23   24 2    
    47   23   25 1    
    48   25   26 1    
    49   25   27 1    
    50   25   87 1    
    51   26   88 1    
    52   26   89 1    
    53   26   90 1    
    54   27   28 am   BACKBONE|DICT|INTERRES
    55   27   91 1    
    56   28   29 2    
    57   28   30 1    
    58   30   31 1    
    59   30   32 1    
    60   30   92 1    
    61   31   93 1    
    62   31   94 1    
    63   31   95 1    
    64   32   33 am   BACKBONE|DICT|INTERRES
    65   32   96 1    
    66   33   34 2    
    67   33   35 1    
    68   35   36 1    
    69   35   37 1    
    70   35   97 1    
    71   36   98 1    
    72   36   99 1    
    73   36  100 1    
    74   37   38 am   BACKBONE|DICT|INTERRES
    75   37  101 1    
    76   38   39 2    
    77   38   40 1    
    78   40   41 1    
    79   40   42 1    
    80   40  102 1    
    81   41  103 1    
    82   41  104 1    
    83   41  105 1    
    84   42   43 am   BACKBONE|DICT|INTERRES
    85   42  106 1    
    86   43   44 2    
    87   43   45 1    
    88   45   46 1    
    89   45   49 1    
    90   45  107 1    
    91   46   47 1    
    92   46  108 1    
    93   46  109 1    
    94   47   48 1    
    95   48  110 1    
    96   48  111 1    
    97   49   50 am   BACKBONE|DICT|INTERRES
    98   49  112 1    
    99   50   51 2    
   100   50   52 1    
   101   52   53 1    
   102   52   54 1    
   103   52  113 1    
   104   53  114 1    
   105   53  115 1    
   106   53  116 1    
   107   54   55 am   BACKBONE|DICT|INTERRES
   108   54  117 1    
   109   55   56 2    
   110   55   57 1    
   111   57   58 1    
   112   57   59 1    
   113   57  118 1    
   114   58  119 1    
   115   58  120 1    
   116   58  121 1    
   117   59   60 am   BACKBONE|DICT|INTERRES
   118   59  122 1    
   119   60   61 2    
   120   60   62 1    
   121   62   63 1    
   122   62   64 1    
   123   62  123 1    
   124   63  124 1    
   125   63  125 1    
   126   63  126 1    
   127   64   65 am   BACKBONE|DICT|INTERRES
   128   64  127 1    
   129   65   66 2    
@<TRIPOS>SUBSTRUCTURE
     1 UNK         1 GROUP             0       ****    0 ROOT    
