@<TRIPOS>MOLECULE
3R135
127   129    1
SMALL
USER_CHARGES


@<TRIPOS>ATOM
      1 CA        -80.2090   23.7137  -67.5827 C.3       0 UNK        -0.1998 
      2 C         -80.8941   24.4890  -68.6980 C.2       0 UNK         0.4909 
      3 O         -82.0840   24.7886  -68.5945 O.2       0 UNK        -0.5240 
      4 N         -80.1520   24.8169  -69.7639 N.am      1 UNK        -0.4739 
      5 CA        -80.6443   25.5647  -70.9301 C.3       1 UNK         0.0864 
      6 C6        -79.4828   26.1268  -71.7876 C.3       11 UNK        -0.0881 
      7 S7        -78.4264   27.2850  -70.8578 S.3       11 UNK        -0.2682 
      8 C8        -79.2246   28.8760  -71.2365 C.3       11 UNK         0.0289 
      9 C9        -78.8269   29.4156  -72.6037 C.ar      11 UNK        -0.0687 
     10 C10       -79.6966   29.3120  -73.6947 C.ar      11 UNK        -0.0823 
     11 C11       -79.3537   29.8682  -74.9321 C.ar      11 UNK        -0.0830 
     12 C12       -78.1307   30.5311  -75.0737 C.ar      11 UNK        -0.1021 
     13 C13       -77.2511   30.6321  -73.9922 C.ar      11 UNK        -0.0753 
     14 C14       -77.6014   30.0683  -72.7626 C.ar      11 UNK        -0.0933 
     15 C15       -75.9434   31.3905  -74.1365 C.3       11 UNK         0.0166 
     16 S16       -74.6445   30.3599  -74.8790 S.3       11 UNK        -0.2615 
     17 C17       -73.2434   31.5335  -74.8035 C.3       11 UNK        -0.0865 
     18 CA        -72.0601   31.0502  -73.9262 C.3       10 UNK         0.0862 
     19 C         -72.4372   30.9029  -72.4203 C.2       10 UNK         0.5551 
     20 N         -72.2766   29.7399  -71.7977 N.am      10 UNK        -0.7319 
     21 O         -72.8725   31.8719  -71.8032 O.2       10 UNK        -0.5018 
     22 N         -71.4118   29.8762  -74.5224 N.am      10 UNK        -0.4509 
     23 C         -70.1486   29.4970  -74.2970 C.2       10 UNK         0.4899 
     24 O         -69.3479   30.1454  -73.6214 O.2       10 UNK        -0.4839 
     25 CA        -69.7183   28.1656  -74.9398 C.3       9 UNK         0.0222 
     26 CB        -68.4756   27.5456  -74.2659 C.3       9 UNK        -0.1966 
     27 N         -70.8125   27.1893  -75.0250 N.am      9 UNK        -0.4218 
     28 C         -71.4987   26.6328  -74.0133 C.2       9 UNK         0.5020 
     29 O         -71.3001   26.9184  -72.8310 O.2       9 UNK        -0.5274 
     30 CA        -72.6114   25.6140  -74.3570 C.3       8 UNK         0.0270 
     31 CB        -73.8907   25.8990  -73.5476 C.3       8 UNK        -0.1976 
     32 N         -72.9663   25.5540  -75.7791 N.am      8 UNK        -0.4313 
     33 C         -72.2238   25.0317  -76.7647 C.2       8 UNK         0.5041 
     34 O         -71.1621   24.4377  -76.5783 O.2       8 UNK        -0.5577 
     35 CA        -72.7062   25.2809  -78.2062 C.3       7 UNK         0.0284 
     36 CB        -73.5960   24.1253  -78.6897 C.3       7 UNK        -0.1958 
     37 N         -73.4168   26.5555  -78.3743 N.am      7 UNK        -0.4454 
     38 C         -72.9069   27.7753  -78.1496 C.2       7 UNK         0.5089 
     39 O         -71.7435   27.9663  -77.7951 O.2       7 UNK        -0.5125 
     40 CA        -73.8495   28.9882  -78.2888 C.3       6 UNK         0.0408 
     41 CB        -73.8534   29.5353  -79.7290 C.3       6 UNK        -0.1791 
     42 N         -75.2096   28.7569  -77.7737 N.am      6 UNK        -0.4762 
     43 C         -76.1614   27.9568  -78.2739 C.2       6 UNK         0.5007 
     44 O         -76.0505   27.3451  -79.3393 O.2       6 UNK        -0.5032 
     45 CA        -77.4176   27.7327  -77.4081 C.3       5 UNK         0.0783 
     46 C46       -78.6315   28.5017  -77.9831 C.3       11 UNK        -0.0857 
     47 S47       -80.1606   28.2264  -77.0211 S.3       11 UNK        -0.2512 
     48 C48       -80.3253   29.7880  -76.1009 C.3       11 UNK         0.0225 
     49 N         -77.6864   26.2970  -77.2871 N.am      5 UNK        -0.4615 
     50 C         -76.8633   25.4027  -76.7257 C.2       4 UNK         0.5053 
     51 O         -75.7797   25.7059  -76.2243 O.2       4 UNK        -0.5105 
     52 CA        -77.3098   23.9262  -76.7590 C.3       4 UNK         0.0263 
     53 CB        -76.6444   23.0856  -75.6476 C.3       4 UNK        -0.1981 
     54 N         -78.7700   23.7455  -76.7576 N.am      4 UNK        -0.4224 
     55 C         -79.6273   24.1290  -75.7990 C.2       3 UNK         0.4895 
     56 O         -79.2851   24.7070  -74.7663 O.2       3 UNK        -0.5091 
     57 CA        -81.1273   23.8568  -76.0374 C.3       3 UNK         0.0250 
     58 CB        -81.4296   22.8280  -77.1523 C.3       3 UNK        -0.1996 
     59 N         -81.7978   23.5036  -74.7817 N.am      3 UNK        -0.4254 
     60 C         -81.5767   22.4231  -74.0190 C.2       2 UNK         0.5004 
     61 O         -80.8684   21.4698  -74.3495 O.2       2 UNK        -0.5226 
     62 CA        -82.2137   22.4577  -72.6171 C.3       2 UNK         0.0269 
     63 CB        -82.2270   21.0764  -71.9359 C.3       2 UNK        -0.1926 
     64 N         -81.4902   23.4005  -71.7610 N.am      2 UNK        -0.4687 
     65 C         -81.6000   24.7362  -71.8144 C.2       1 UNK         0.5165 
     66 O         -82.4093   25.3180  -72.5399 O.2       1 UNK        -0.5079 
     67 H67       -80.2624   24.2736  -66.6494 H         1 UNK         0.0900 
     68 H68       -79.1589   23.5232  -67.8037 H         1 UNK         0.0900 
     69 H69       -80.7039   22.7545  -67.4339 H         1 UNK         0.0900 
     70 H70       -79.1721   24.5716  -69.7850 H         1 UNK         0.2959 
     71 H71       -81.2292   26.4095  -70.5593 H         1 UNK         0.1079 
     72 H72       -78.8513   25.3139  -72.1511 H         1 UNK         0.0837 
     73 H73       -79.8596   26.6274  -72.6813 H         1 UNK         0.0837 
     74 H74       -80.3081   28.7723  -71.1602 H         1 UNK         0.0685 
     75 H75       -78.9381   29.5979  -70.4703 H         1 UNK         0.0685 
     76 H76       -80.6492   28.8131  -73.5785 H         1 UNK         0.1434 
     77 H77       -77.8655   30.9794  -76.0214 H         1 UNK         0.1329 
     78 H78       -76.9281   30.1536  -71.9203 H         1 UNK         0.1335 
     79 H79       -76.0986   32.2771  -74.7535 H         1 UNK         0.0680 
     80 H80       -75.6062   31.7477  -73.1618 H         1 UNK         0.0680 
     81 H81       -72.8954   31.7091  -75.8226 H         1 UNK         0.1032 
     82 H82       -73.5885   32.5076  -74.4520 H         1 UNK         0.1032 
     83 H83       -71.3217   31.8542  -73.9493 H         1 UNK         0.0461 
     84 H84       -71.9088   28.9326  -72.2848 H         1 UNK         0.3453 
     85 H85       -72.5215   29.6673  -70.8235 H         1 UNK         0.3453 
     86 H86       -72.0057   29.2756  -75.0746 H         1 UNK         0.2984 
     87 H87       -69.4488   28.4030  -75.9699 H         1 UNK         0.0554 
     88 H88       -68.1884   26.6106  -74.7468 H         1 UNK         0.0847 
     89 H89       -68.6475   27.3405  -73.2087 H         1 UNK         0.0847 
     90 H90       -67.6189   28.2176  -74.3302 H         1 UNK         0.0847 
     91 H91       -71.0837   26.9397  -75.9690 H         1 UNK         0.3141 
     92 H92       -72.2372   24.6315  -74.0634 H         1 UNK         0.0743 
     93 H93       -74.3127   26.8746  -73.7940 H         1 UNK         0.0784 
     94 H94       -74.6565   25.1468  -73.7386 H         1 UNK         0.0784 
     95 H95       -73.6949   25.8885  -72.4747 H         1 UNK         0.0784 
     96 H96       -73.8828   25.9228  -76.0250 H         1 UNK         0.3213 
     97 H97       -71.8201   25.3184  -78.8432 H         1 UNK         0.0855 
     98 H98       -74.4987   24.0315  -78.0873 H         1 UNK         0.0814 
     99 H99       -73.0651   23.1743  -78.6280 H         1 UNK         0.0814 
    100 H100      -73.8965   24.2613  -79.7287 H         1 UNK         0.0814 
    101 H101      -74.3840   26.5131  -78.6798 H         1 UNK         0.3105 
    102 H102      -73.4331   29.7717  -77.6541 H         1 UNK         0.0547 
    103 H103      -72.8478   29.8306  -80.0311 H         1 UNK         0.0837 
    104 H104      -74.1993   28.7961  -80.4516 H         1 UNK         0.0837 
    105 H105      -74.4894   30.4158  -79.8173 H         1 UNK         0.0837 
    106 H106      -75.3801   29.1845  -76.8711 H         1 UNK         0.3020 
    107 H107      -77.2181   28.1034  -76.3998 H         1 UNK         0.1245 
    108 H108      -78.8283   28.1878  -79.0103 H         1 UNK         0.0781 
    109 H109      -78.4194   29.5710  -78.0336 H         1 UNK         0.0781 
    110 H110      -81.3480   29.8648  -75.7286 H         1 UNK         0.0836 
    111 H111      -80.1907   30.6342  -76.7764 H         1 UNK         0.0836 
    112 H112      -78.5572   25.9756  -77.6806 H         1 UNK         0.3022 
    113 H113      -76.9613   23.5346  -77.7155 H         1 UNK         0.0747 
    114 H114      -76.9584   22.0431  -75.6958 H         1 UNK         0.0793 
    115 H115      -75.5577   23.1010  -75.7408 H         1 UNK         0.0793 
    116 H116      -76.8882   23.4643  -74.6545 H         1 UNK         0.0793 
    117 H117      -79.1532   23.2815  -77.5696 H         1 UNK         0.3047 
    118 H118      -81.5564   24.8113  -76.3462 H         1 UNK         0.0822 
    119 H119      -82.5001   22.6362  -77.2268 H         1 UNK         0.0807 
    120 H120      -80.9361   21.8715  -76.9760 H         1 UNK         0.0807 
    121 H121      -81.1082   23.1934  -78.1282 H         1 UNK         0.0807 
    122 H122      -82.3138   24.2600  -74.3448 H         1 UNK         0.2946 
    123 H123      -83.2494   22.7886  -72.7259 H         1 UNK         0.1144 
    124 H124      -81.2189   20.6943  -71.7702 H         1 UNK         0.0793 
    125 H125      -82.7564   20.3456  -72.5487 H         1 UNK         0.0793 
    126 H126      -82.7327   21.1161  -70.9709 H         1 UNK         0.0793 
    127 H127      -80.7868   23.0103  -71.1508 H         1 UNK         0.2896 
@<TRIPOS>BOND
     1    1    2 1    
     2    1   67 1    
     3    1   68 1    
     4    1   69 1    
     5    2    3 2    
     6    2    4 am   BACKBONE|DICT|INTERRES
     7    4    5 1    
     8    4   70 1    
     9    5    6 1    
    10    5   65 1    
    11    5   71 1    
    12    6    7 1    
    13    6   72 1    
    14    6   73 1    
    15    7    8 1    
    16    8    9 1    
    17    8   74 1    
    18    8   75 1    
    19    9   10 ar   
    20    9   14 ar   
    21   10   11 ar   
    22   10   76 1    
    23   11   12 ar   
    24   11   48 1    
    25   12   13 ar   
    26   12   77 1    
    27   13   14 ar   
    28   13   15 1    
    29   14   78 1    
    30   15   16 1    
    31   15   79 1    
    32   15   80 1    
    33   16   17 1    
    34   17   18 1    
    35   17   81 1    
    36   17   82 1    
    37   18   19 1    
    38   18   22 1    
    39   18   83 1    
    40   19   20 am   BACKBONE|DICT|INTERRES
    41   19   21 2    
    42   20   84 1    
    43   20   85 1    
    44   22   23 am   BACKBONE|DICT|INTERRES
    45   22   86 1    
    46   23   24 2    
    47   23   25 1    
    48   25   26 1    
    49   25   27 1    
    50   25   87 1    
    51   26   88 1    
    52   26   89 1    
    53   26   90 1    
    54   27   28 am   BACKBONE|DICT|INTERRES
    55   27   91 1    
    56   28   29 2    
    57   28   30 1    
    58   30   31 1    
    59   30   32 1    
    60   30   92 1    
    61   31   93 1    
    62   31   94 1    
    63   31   95 1    
    64   32   33 am   BACKBONE|DICT|INTERRES
    65   32   96 1    
    66   33   34 2    
    67   33   35 1    
    68   35   36 1    
    69   35   37 1    
    70   35   97 1    
    71   36   98 1    
    72   36   99 1    
    73   36  100 1    
    74   37   38 am   BACKBONE|DICT|INTERRES
    75   37  101 1    
    76   38   39 2    
    77   38   40 1    
    78   40   41 1    
    79   40   42 1    
    80   40  102 1    
    81   41  103 1    
    82   41  104 1    
    83   41  105 1    
    84   42   43 am   BACKBONE|DICT|INTERRES
    85   42  106 1    
    86   43   44 2    
    87   43   45 1    
    88   45   46 1    
    89   45   49 1    
    90   45  107 1    
    91   46   47 1    
    92   46  108 1    
    93   46  109 1    
    94   47   48 1    
    95   48  110 1    
    96   48  111 1    
    97   49   50 am   BACKBONE|DICT|INTERRES
    98   49  112 1    
    99   50   51 2    
   100   50   52 1    
   101   52   53 1    
   102   52   54 1    
   103   52  113 1    
   104   53  114 1    
   105   53  115 1    
   106   53  116 1    
   107   54   55 am   BACKBONE|DICT|INTERRES
   108   54  117 1    
   109   55   56 2    
   110   55   57 1    
   111   57   58 1    
   112   57   59 1    
   113   57  118 1    
   114   58  119 1    
   115   58  120 1    
   116   58  121 1    
   117   59   60 am   BACKBONE|DICT|INTERRES
   118   59  122 1    
   119   60   61 2    
   120   60   62 1    
   121   62   63 1    
   122   62   64 1    
   123   62  123 1    
   124   63  124 1    
   125   63  125 1    
   126   63  126 1    
   127   64   65 am   BACKBONE|DICT|INTERRES
   128   64  127 1    
   129   65   66 2    
@<TRIPOS>SUBSTRUCTURE
     1 UNK         1 GROUP             0       ****    0 ROOT    
