@<TRIPOS>MOLECULE
3R135
127   129    1
SMALL
USER_CHARGES


@<TRIPOS>ATOM
      1 CA        -78.2327   25.2854  -69.7567 C.3       0 UNK        -0.1998 
      2 C         -79.4418   25.1842  -70.6744 C.2       0 UNK         0.4909 
      3 O         -79.9915   24.0956  -70.8472 O.2       0 UNK        -0.5240 
      4 N         -79.8674   26.3134  -71.2512 N.am      1 UNK        -0.4739 
      5 CA        -81.0139   26.4094  -72.1625 C.3       1 UNK         0.0864 
      6 C6        -81.5849   27.8541  -72.2442 C.3       11 UNK        -0.0881 
      7 S7        -81.7409   28.6858  -70.6229 S.3       11 UNK        -0.2682 
      8 C8        -80.9135   30.2879  -70.9181 C.3       11 UNK         0.0289 
      9 C9        -79.4963   30.1483  -71.4652 C.ar      11 UNK        -0.0687 
     10 C10       -79.1892   30.6287  -72.7445 C.ar      11 UNK        -0.0823 
     11 C11       -77.8960   30.5018  -73.2610 C.ar      11 UNK        -0.0830 
     12 C12       -76.9042   29.9094  -72.4778 C.ar      11 UNK        -0.1021 
     13 C13       -77.1945   29.4231  -71.1999 C.ar      11 UNK        -0.0753 
     14 C14       -78.4927   29.5498  -70.6954 C.ar      11 UNK        -0.0933 
     15 C15       -76.0932   28.7809  -70.3689 C.3       11 UNK         0.0166 
     16 S16       -75.3231   27.3905  -71.2595 S.3       11 UNK        -0.2615 
     17 C17       -73.5522   27.6606  -70.9131 C.3       11 UNK        -0.0865 
     18 CA        -72.9162   28.8254  -71.7231 C.3       10 UNK         0.0862 
     19 C         -71.4065   28.9804  -71.3677 C.2       10 UNK         0.5551 
     20 N         -70.4734   28.8345  -72.3023 N.am      10 UNK        -0.7319 
     21 O         -71.0767   29.2430  -70.2138 O.2       10 UNK        -0.5018 
     22 N         -73.1981   28.7269  -73.1640 N.am      10 UNK        -0.4509 
     23 C         -73.0907   29.7405  -74.0343 C.2       10 UNK         0.4899 
     24 O         -72.8552   30.9030  -73.7026 O.2       10 UNK        -0.4839 
     25 CA        -73.2740   29.3895  -75.5247 C.3       9 UNK         0.0222 
     26 CB        -72.6023   30.4083  -76.4693 C.3       9 UNK        -0.1966 
     27 N         -72.8581   28.0172  -75.8515 N.am      9 UNK        -0.4218 
     28 C         -71.6353   27.4887  -75.6860 C.2       9 UNK         0.5020 
     29 O         -70.6694   28.1256  -75.2623 O.2       9 UNK        -0.5274 
     30 CA        -71.4521   25.9930  -75.9802 C.3       8 UNK         0.0270 
     31 CB        -71.3399   25.2128  -74.6578 C.3       8 UNK        -0.1976 
     32 N         -72.5449   25.4131  -76.7684 N.am      8 UNK        -0.4313 
     33 C         -72.3878   24.7977  -77.9464 C.2       8 UNK         0.5041 
     34 O         -71.3260   24.7680  -78.5712 O.2       8 UNK        -0.5577 
     35 CA        -73.5998   24.0355  -78.5047 C.3       7 UNK         0.0284 
     36 CB        -73.7782   22.7020  -77.7600 C.3       7 UNK        -0.1958 
     37 N         -74.8564   24.7886  -78.4764 N.am      7 UNK        -0.4454 
     38 C         -75.1495   25.7839  -79.3258 C.2       7 UNK         0.5089 
     39 O         -74.3513   26.2459  -80.1419 O.2       7 UNK        -0.5125 
     40 CA        -76.5864   26.3349  -79.2893 C.3       6 UNK         0.0408 
     41 CB        -77.5648   25.3491  -79.9480 C.3       6 UNK        -0.1791 
     42 N         -77.0387   26.6458  -77.9342 N.am      6 UNK        -0.4762 
     43 C         -76.5894   27.6838  -77.2137 C.2       6 UNK         0.5007 
     44 O         -75.7992   28.5209  -77.6485 O.2       6 UNK        -0.5032 
     45 CA        -77.0499   27.7682  -75.7429 C.3       5 UNK         0.0783 
     46 C46       -78.4400   28.4311  -75.5874 C.3       11 UNK        -0.0857 
     47 S47       -78.5127   30.2098  -75.9918 S.3       11 UNK        -0.2512 
     48 C48       -77.5530   31.0077  -74.6577 C.3       11 UNK         0.0225 
     49 N         -77.0320   26.4555  -75.0972 N.am      5 UNK        -0.4615 
     50 C         -75.9627   25.6668  -74.9419 C.2       4 UNK         0.5053 
     51 O         -74.8229   25.9841  -75.2784 O.2       4 UNK        -0.5105 
     52 CA        -76.2137   24.2681  -74.3604 C.3       4 UNK         0.0263 
     53 CB        -76.2067   24.3060  -72.8278 C.3       4 UNK        -0.1981 
     54 N         -77.4750   23.6915  -74.8294 N.am      4 UNK        -0.4224 
     55 C         -77.6820   23.2507  -76.0771 C.2       3 UNK         0.4895 
     56 O         -76.8326   23.2897  -76.9668 O.2       3 UNK        -0.5091 
     57 CA        -79.0834   22.7028  -76.3915 C.3       3 UNK         0.0250 
     58 CB        -79.2855   21.3151  -75.7615 C.3       3 UNK        -0.1996 
     59 N         -80.1566   23.6039  -75.9640 N.am      3 UNK        -0.4254 
     60 C         -80.3622   24.8223  -76.4821 C.2       2 UNK         0.5004 
     61 O         -79.6638   25.3205  -77.3651 O.2       2 UNK        -0.5226 
     62 CA        -81.5294   25.6400  -75.9026 C.3       2 UNK         0.0269 
     63 CB        -82.8673   25.1495  -76.4804 C.3       2 UNK        -0.1926 
     64 N         -81.6273   25.7109  -74.4355 N.am      2 UNK        -0.4687 
     65 C         -80.6211   25.9330  -73.5758 C.2       1 UNK         0.5165 
     66 O         -79.4300   25.8531  -73.8784 O.2       1 UNK        -0.5079 
     67 H67       -77.4624   24.5786  -70.0630 H         1 UNK         0.0900 
     68 H68       -77.7991   26.2844  -69.7680 H         1 UNK         0.0900 
     69 H69       -78.5200   25.0518  -68.7321 H         1 UNK         0.0900 
     70 H70       -79.3639   27.1766  -71.1056 H         1 UNK         0.2959 
     71 H71       -81.7995   25.7486  -71.7891 H         1 UNK         0.1079 
     72 H72       -82.5764   27.8376  -72.6999 H         1 UNK         0.0837 
     73 H73       -80.9759   28.4703  -72.9069 H         1 UNK         0.0837 
     74 H74       -80.8783   30.8426  -69.9796 H         1 UNK         0.0685 
     75 H75       -81.5322   30.8775  -71.5965 H         1 UNK         0.0685 
     76 H76       -79.9581   31.0918  -73.3479 H         1 UNK         0.1434 
     77 H77       -75.8985   29.8153  -72.8622 H         1 UNK         0.1329 
     78 H78       -78.7267   29.1856  -69.7042 H         1 UNK         0.1335 
     79 H79       -76.4787   28.4182  -69.4151 H         1 UNK         0.0680 
     80 H80       -75.3516   29.5434  -70.1304 H         1 UNK         0.0680 
     81 H81       -73.0297   26.7267  -71.1286 H         1 UNK         0.1032 
     82 H82       -73.4332   27.8281  -69.8407 H         1 UNK         0.1032 
     83 H83       -73.3856   29.7483  -71.3789 H         1 UNK         0.0461 
     84 H84       -70.7172   28.6343  -73.2654 H         1 UNK         0.3453 
     85 H85       -69.5050   28.9427  -72.0469 H         1 UNK         0.3453 
     86 H86       -73.4150   27.8051  -73.5135 H         1 UNK         0.2984 
     87 H87       -74.3452   29.4424  -75.7058 H         1 UNK         0.0554 
     88 H88       -73.0101   31.4088  -76.3207 H         1 UNK         0.0847 
     89 H89       -72.7686   30.1459  -77.5141 H         1 UNK         0.0847 
     90 H90       -71.5263   30.4683  -76.3037 H         1 UNK         0.0847 
     91 H91       -73.6063   27.3888  -76.1209 H         1 UNK         0.3141 
     92 H92       -70.5029   25.8968  -76.5112 H         1 UNK         0.0743 
     93 H93       -70.5314   25.6024  -74.0374 H         1 UNK         0.0784 
     94 H94       -72.2592   25.2737  -74.0735 H         1 UNK         0.0784 
     95 H95       -71.1281   24.1588  -74.8384 H         1 UNK         0.0784 
     96 H96       -73.4636   25.4147  -76.3277 H         1 UNK         0.3213 
     97 H97       -73.3792   23.7987  -79.5482 H         1 UNK         0.0855 
     98 H98       -74.0375   22.8546  -76.7119 H         1 UNK         0.0814 
     99 H99       -72.8609   22.1122  -77.7871 H         1 UNK         0.0814 
    100 H100      -74.5643   22.0977  -78.2132 H         1 UNK         0.0814 
    101 H101      -75.5883   24.4316  -77.8661 H         1 UNK         0.3105 
    102 H102      -76.6040   27.2579  -79.8729 H         1 UNK         0.0547 
    103 H103      -78.5676   25.7718  -80.0118 H         1 UNK         0.0837 
    104 H104      -77.2503   25.1048  -80.9634 H         1 UNK         0.0837 
    105 H105      -77.6348   24.4131  -79.3926 H         1 UNK         0.0837 
    106 H106      -77.7301   26.0230  -77.5273 H         1 UNK         0.3020 
    107 H107      -76.3234   28.3773  -75.2054 H         1 UNK         0.1245 
    108 H108      -78.7925   28.3158  -74.5623 H         1 UNK         0.0781 
    109 H109      -79.1764   27.9134  -76.2040 H         1 UNK         0.0781 
    110 H110      -77.7300   32.0833  -74.6962 H         1 UNK         0.0836 
    111 H111      -76.4910   30.8721  -74.8682 H         1 UNK         0.0836 
    112 H112      -77.9269   26.1265  -74.7349 H         1 UNK         0.3022 
    113 H113      -75.3993   23.6185  -74.6877 H         1 UNK         0.0747 
    114 H114      -76.3988   23.3217  -72.4007 H         1 UNK         0.0793 
    115 H115      -75.2375   24.6378  -72.4540 H         1 UNK         0.0793 
    116 H116      -76.9604   24.9948  -72.4456 H         1 UNK         0.0793 
    117 H117      -78.2534   23.7077  -74.1850 H         1 UNK         0.3047 
    118 H118      -79.1540   22.5940  -77.4762 H         1 UNK         0.0822 
    119 H119      -78.4980   20.6274  -76.0734 H         1 UNK         0.0807 
    120 H120      -80.2354   20.8761  -76.0675 H         1 UNK         0.0807 
    121 H121      -79.2704   21.3554  -74.6717 H         1 UNK         0.0807 
    122 H122      -80.7670   23.2852  -75.2255 H         1 UNK         0.2946 
    123 H123      -81.3806   26.6656  -76.2468 H         1 UNK         0.1144 
    124 H124      -83.6836   25.8243  -76.2225 H         1 UNK         0.0793 
    125 H125      -83.1254   24.1550  -76.1146 H         1 UNK         0.0793 
    126 H126      -82.8284   25.0964  -77.5697 H         1 UNK         0.0793 
    127 H127      -82.5687   25.7717  -74.0743 H         1 UNK         0.2896 
@<TRIPOS>BOND
     1    1    2 1    
     2    1   67 1    
     3    1   68 1    
     4    1   69 1    
     5    2    3 2    
     6    2    4 am   BACKBONE|DICT|INTERRES
     7    4    5 1    
     8    4   70 1    
     9    5    6 1    
    10    5   65 1    
    11    5   71 1    
    12    6    7 1    
    13    6   72 1    
    14    6   73 1    
    15    7    8 1    
    16    8    9 1    
    17    8   74 1    
    18    8   75 1    
    19    9   10 ar   
    20    9   14 ar   
    21   10   11 ar   
    22   10   76 1    
    23   11   12 ar   
    24   11   48 1    
    25   12   13 ar   
    26   12   77 1    
    27   13   14 ar   
    28   13   15 1    
    29   14   78 1    
    30   15   16 1    
    31   15   79 1    
    32   15   80 1    
    33   16   17 1    
    34   17   18 1    
    35   17   81 1    
    36   17   82 1    
    37   18   19 1    
    38   18   22 1    
    39   18   83 1    
    40   19   20 am   BACKBONE|DICT|INTERRES
    41   19   21 2    
    42   20   84 1    
    43   20   85 1    
    44   22   23 am   BACKBONE|DICT|INTERRES
    45   22   86 1    
    46   23   24 2    
    47   23   25 1    
    48   25   26 1    
    49   25   27 1    
    50   25   87 1    
    51   26   88 1    
    52   26   89 1    
    53   26   90 1    
    54   27   28 am   BACKBONE|DICT|INTERRES
    55   27   91 1    
    56   28   29 2    
    57   28   30 1    
    58   30   31 1    
    59   30   32 1    
    60   30   92 1    
    61   31   93 1    
    62   31   94 1    
    63   31   95 1    
    64   32   33 am   BACKBONE|DICT|INTERRES
    65   32   96 1    
    66   33   34 2    
    67   33   35 1    
    68   35   36 1    
    69   35   37 1    
    70   35   97 1    
    71   36   98 1    
    72   36   99 1    
    73   36  100 1    
    74   37   38 am   BACKBONE|DICT|INTERRES
    75   37  101 1    
    76   38   39 2    
    77   38   40 1    
    78   40   41 1    
    79   40   42 1    
    80   40  102 1    
    81   41  103 1    
    82   41  104 1    
    83   41  105 1    
    84   42   43 am   BACKBONE|DICT|INTERRES
    85   42  106 1    
    86   43   44 2    
    87   43   45 1    
    88   45   46 1    
    89   45   49 1    
    90   45  107 1    
    91   46   47 1    
    92   46  108 1    
    93   46  109 1    
    94   47   48 1    
    95   48  110 1    
    96   48  111 1    
    97   49   50 am   BACKBONE|DICT|INTERRES
    98   49  112 1    
    99   50   51 2    
   100   50   52 1    
   101   52   53 1    
   102   52   54 1    
   103   52  113 1    
   104   53  114 1    
   105   53  115 1    
   106   53  116 1    
   107   54   55 am   BACKBONE|DICT|INTERRES
   108   54  117 1    
   109   55   56 2    
   110   55   57 1    
   111   57   58 1    
   112   57   59 1    
   113   57  118 1    
   114   58  119 1    
   115   58  120 1    
   116   58  121 1    
   117   59   60 am   BACKBONE|DICT|INTERRES
   118   59  122 1    
   119   60   61 2    
   120   60   62 1    
   121   62   63 1    
   122   62   64 1    
   123   62  123 1    
   124   63  124 1    
   125   63  125 1    
   126   63  126 1    
   127   64   65 am   BACKBONE|DICT|INTERRES
   128   64  127 1    
   129   65   66 2    
@<TRIPOS>SUBSTRUCTURE
     1 UNK         1 GROUP             0       ****    0 ROOT    
