@<TRIPOS>MOLECULE
3R135
127   129    1
SMALL
USER_CHARGES


@<TRIPOS>ATOM
      1 CA        -81.1995   32.2263  -75.5006 C.3       0 UNK        -0.1998 
      2 C         -80.8160   30.8420  -74.9997 C.2       0 UNK         0.4909 
      3 O         -80.0118   30.1642  -75.6389 O.2       0 UNK        -0.5240 
      4 N         -81.3840   30.4254  -73.8600 N.am      1 UNK        -0.4739 
      5 CA        -81.1475   29.1314  -73.2071 C.3       1 UNK         0.0864 
      6 C6        -81.8498   29.0390  -71.8278 C.3       11 UNK        -0.0881 
      7 S7        -81.4573   30.4498  -70.7347 S.3       11 UNK        -0.2682 
      8 C8        -80.3636   29.6923  -69.4895 C.3       11 UNK         0.0289 
      9 C9        -79.0532   29.1713  -70.0691 C.ar      11 UNK        -0.0687 
     10 C10       -78.6305   27.8722  -69.7738 C.ar      11 UNK        -0.0823 
     11 C11       -77.4139   27.3885  -70.2643 C.ar      11 UNK        -0.0830 
     12 C12       -76.6205   28.2117  -71.0695 C.ar      11 UNK        -0.1021 
     13 C13       -77.0248   29.5182  -71.3616 C.ar      11 UNK        -0.0753 
     14 C14       -78.2382   29.9932  -70.8548 C.ar      11 UNK        -0.0933 
     15 C15       -76.1279   30.4369  -72.1786 C.3       11 UNK         0.0166 
     16 S16       -76.7946   30.7871  -73.8365 S.3       11 UNK        -0.2615 
     17 C17       -76.7330   29.1528  -74.6512 C.3       11 UNK        -0.0865 
     18 CA        -75.2965   28.6455  -74.9580 C.3       10 UNK         0.0862 
     19 C         -75.3250   27.2318  -75.6024 C.2       10 UNK         0.5551 
     20 N         -75.0203   27.0576  -76.8805 N.am      10 UNK        -0.7319 
     21 O         -75.5483   26.2499  -74.9052 O.2       10 UNK        -0.5018 
     22 N         -74.4174   29.6028  -75.6506 N.am      10 UNK        -0.4509 
     23 C         -74.6132   30.2141  -76.8271 C.2       10 UNK         0.4899 
     24 O         -75.6710   30.2137  -77.4545 O.2       10 UNK        -0.4839 
     25 CA        -73.3489   30.8308  -77.4575 C.3       9 UNK         0.0222 
     26 CB        -73.0136   32.1858  -76.8128 C.3       9 UNK        -0.1966 
     27 N         -72.2041   29.9148  -77.3354 N.am      9 UNK        -0.4218 
     28 C         -72.1515   28.7098  -77.9248 C.2       9 UNK         0.5020 
     29 O         -72.9396   28.3521  -78.8023 O.2       9 UNK        -0.5274 
     30 CA        -71.1245   27.6936  -77.4040 C.3       8 UNK         0.0270 
     31 CB        -70.2468   28.1959  -76.2365 C.3       8 UNK        -0.1976 
     32 N         -71.8812   26.5142  -76.9862 N.am      8 UNK        -0.4313 
     33 C         -71.4552   25.2481  -77.0184 C.2       8 UNK         0.5041 
     34 O         -70.3233   24.9129  -77.3750 O.2       8 UNK        -0.5577 
     35 CA        -72.4827   24.1895  -76.5661 C.3       7 UNK         0.0284 
     36 CB        -71.9501   22.7437  -76.6598 C.3       7 UNK        -0.1958 
     37 N         -73.0215   24.4612  -75.2252 N.am      7 UNK        -0.4454 
     38 C         -72.3366   24.5343  -74.0706 C.2       7 UNK         0.5089 
     39 O         -71.1198   24.3709  -73.9790 O.2       7 UNK        -0.5125 
     40 CA        -73.1332   24.8337  -72.7876 C.3       6 UNK         0.0408 
     41 CB        -72.9011   26.2869  -72.3427 C.3       6 UNK        -0.1791 
     42 N         -74.5695   24.6143  -72.9696 N.am      6 UNK        -0.4762 
     43 C         -75.3052   23.6851  -72.3502 C.2       6 UNK         0.5007 
     44 O         -74.8695   22.9221  -71.4866 O.2       6 UNK        -0.5032 
     45 CA        -76.7770   23.5769  -72.8000 C.3       5 UNK         0.0783 
     46 C46       -77.6323   24.7733  -72.3191 C.3       11 UNK        -0.0857 
     47 S47       -78.0234   24.6901  -70.5432 S.3       11 UNK        -0.2512 
     48 C48       -76.9396   25.9931  -69.8811 C.3       11 UNK         0.0225 
     49 N         -76.8905   23.3893  -74.2505 N.am      5 UNK        -0.4615 
     50 C         -76.5099   22.2768  -74.8977 C.2       4 UNK         0.5053 
     51 O         -75.9928   21.3136  -74.3309 O.2       4 UNK        -0.5105 
     52 CA        -76.7688   22.1827  -76.4135 C.3       4 UNK         0.0263 
     53 CB        -77.4729   20.8612  -76.7723 C.3       4 UNK        -0.1981 
     54 N         -77.5822   23.2888  -76.9199 N.am      4 UNK        -0.4224 
     55 C         -77.1063   24.3512  -77.5785 C.2       3 UNK         0.4895 
     56 O         -75.9147   24.5166  -77.8438 O.2       3 UNK        -0.5091 
     57 CA        -78.1257   25.4185  -78.0205 C.3       3 UNK         0.0250 
     58 CB        -78.4702   25.2389  -79.5078 C.3       3 UNK        -0.1996 
     59 N         -79.3702   25.4631  -77.2391 N.am      3 UNK        -0.4254 
     60 C         -79.4374   25.7697  -75.9370 C.2       2 UNK         0.5004 
     61 O         -78.4504   25.9108  -75.2152 O.2       2 UNK        -0.5226 
     62 CA        -80.8285   25.9372  -75.3213 C.3       2 UNK         0.0269 
     63 CB        -81.3167   24.6288  -74.6773 C.3       2 UNK        -0.1926 
     64 N         -80.7129   26.9807  -74.3066 N.am      2 UNK        -0.4687 
     65 C         -81.5911   27.9692  -74.1209 C.2       1 UNK         0.5165 
     66 O         -82.7085   27.9990  -74.6444 O.2       1 UNK        -0.5079 
     67 H67       -80.3129   32.8554  -75.5754 H         1 UNK         0.0900 
     68 H68       -81.9096   32.7187  -74.8364 H         1 UNK         0.0900 
     69 H69       -81.6521   32.1553  -76.4893 H         1 UNK         0.0900 
     70 H70       -82.0386   31.0285  -73.3830 H         1 UNK         0.2959 
     71 H71       -80.0696   29.0518  -73.0462 H         1 UNK         0.1079 
     72 H72       -82.9343   29.0132  -71.9525 H         1 UNK         0.0837 
     73 H73       -81.5823   28.1064  -71.3269 H         1 UNK         0.0837 
     74 H74       -80.1332   30.4390  -68.7287 H         1 UNK         0.0685 
     75 H75       -80.9111   28.8964  -68.9821 H         1 UNK         0.0685 
     76 H76       -79.2407   27.2351  -69.1477 H         1 UNK         0.1434 
     77 H77       -75.6763   27.8450  -71.4480 H         1 UNK         0.1329 
     78 H78       -78.5472   31.0068  -71.0716 H         1 UNK         0.1335 
     79 H79       -75.1217   30.0261  -72.2668 H         1 UNK         0.0680 
     80 H80       -76.0164   31.3829  -71.6468 H         1 UNK         0.0680 
     81 H81       -77.3136   29.2198  -75.5731 H         1 UNK         0.1032 
     82 H82       -77.2652   28.4328  -74.0263 H         1 UNK         0.1032 
     83 H83       -74.8116   28.4945  -73.9945 H         1 UNK         0.0461 
     84 H84       -75.1374   26.1296  -77.2766 H         1 UNK         0.3453 
     85 H85       -74.8606   27.8483  -77.4888 H         1 UNK         0.3453 
     86 H86       -73.4990   29.6877  -75.2428 H         1 UNK         0.2984 
     87 H87       -73.5441   30.9961  -78.5194 H         1 UNK         0.0554 
     88 H88       -72.7902   32.0906  -75.7496 H         1 UNK         0.0847 
     89 H89       -73.8519   32.8775  -76.9071 H         1 UNK         0.0847 
     90 H90       -72.1551   32.6529  -77.2958 H         1 UNK         0.0847 
     91 H91       -71.5005   30.1452  -76.6485 H         1 UNK         0.3141 
     92 H92       -70.4800   27.4334  -78.2462 H         1 UNK         0.0743 
     93 H93       -69.6645   29.0724  -76.5233 H         1 UNK         0.0784 
     94 H94       -70.8394   28.4514  -75.3571 H         1 UNK         0.0784 
     95 H95       -69.5322   27.4303  -75.9330 H         1 UNK         0.0784 
     96 H96       -72.8556   26.6847  -76.7668 H         1 UNK         0.3213 
     97 H97       -73.3222   24.2668  -77.2582 H         1 UNK         0.0855 
     98 H98       -71.6439   22.5079  -77.6796 H         1 UNK         0.0814 
     99 H99       -72.7152   22.0210  -76.3759 H         1 UNK         0.0814 
    100 H100      -71.0836   22.5859  -76.0170 H         1 UNK         0.0814 
    101 H101      -74.0145   24.6512  -75.1860 H         1 UNK         0.3105 
    102 H102      -72.7456   24.1742  -72.0086 H         1 UNK         0.0547 
    103 H103      -71.8430   26.4707  -72.1512 H         1 UNK         0.0837 
    104 H104      -73.2205   26.9982  -73.1031 H         1 UNK         0.0837 
    105 H105      -73.4393   26.5109  -71.4218 H         1 UNK         0.0837 
    106 H106      -75.0333   25.2076  -73.6600 H         1 UNK         0.3020 
    107 H107      -77.1819   22.6728  -72.3386 H         1 UNK         0.1245 
    108 H108      -78.5929   24.7656  -72.8330 H         1 UNK         0.0781 
    109 H109      -77.1727   25.7285  -72.5796 H         1 UNK         0.0781 
    110 H110      -75.9155   25.8189  -70.2151 H         1 UNK         0.0836 
    111 H111      -76.9210   25.9134  -68.7933 H         1 UNK         0.0836 
    112 H112      -77.2670   24.1734  -74.7739 H         1 UNK         0.3022 
    113 H113      -75.7906   22.1827  -76.8992 H         1 UNK         0.0747 
    114 H114      -77.6395   20.7807  -77.8467 H         1 UNK         0.0793 
    115 H115      -76.8714   20.0002  -76.4774 H         1 UNK         0.0793 
    116 H116      -78.4393   20.7701  -76.2748 H         1 UNK         0.0793 
    117 H117      -78.5739   23.2465  -76.7348 H         1 UNK         0.3047 
    118 H118      -77.6374   26.3882  -77.9017 H         1 UNK         0.0822 
    119 H119      -79.0987   26.0519  -79.8718 H         1 UNK         0.0807 
    120 H120      -78.9933   24.2994  -79.6907 H         1 UNK         0.0807 
    121 H121      -77.5671   25.2334  -80.1201 H         1 UNK         0.0807 
    122 H122      -80.2288   25.3390  -77.7567 H         1 UNK         0.2946 
    123 H123      -81.5252   26.2450  -76.1049 H         1 UNK         0.1144 
    124 H124      -82.2982   24.7579  -74.2207 H         1 UNK         0.0793 
    125 H125      -80.6344   24.2752  -73.9042 H         1 UNK         0.0793 
    126 H126      -81.4073   23.8365  -75.4212 H         1 UNK         0.0793 
    127 H127      -79.7908   27.0405  -73.8919 H         1 UNK         0.2896 
@<TRIPOS>BOND
     1    1    2 1    
     2    1   67 1    
     3    1   68 1    
     4    1   69 1    
     5    2    3 2    
     6    2    4 am   BACKBONE|DICT|INTERRES
     7    4    5 1    
     8    4   70 1    
     9    5    6 1    
    10    5   65 1    
    11    5   71 1    
    12    6    7 1    
    13    6   72 1    
    14    6   73 1    
    15    7    8 1    
    16    8    9 1    
    17    8   74 1    
    18    8   75 1    
    19    9   10 ar   
    20    9   14 ar   
    21   10   11 ar   
    22   10   76 1    
    23   11   12 ar   
    24   11   48 1    
    25   12   13 ar   
    26   12   77 1    
    27   13   14 ar   
    28   13   15 1    
    29   14   78 1    
    30   15   16 1    
    31   15   79 1    
    32   15   80 1    
    33   16   17 1    
    34   17   18 1    
    35   17   81 1    
    36   17   82 1    
    37   18   19 1    
    38   18   22 1    
    39   18   83 1    
    40   19   20 am   BACKBONE|DICT|INTERRES
    41   19   21 2    
    42   20   84 1    
    43   20   85 1    
    44   22   23 am   BACKBONE|DICT|INTERRES
    45   22   86 1    
    46   23   24 2    
    47   23   25 1    
    48   25   26 1    
    49   25   27 1    
    50   25   87 1    
    51   26   88 1    
    52   26   89 1    
    53   26   90 1    
    54   27   28 am   BACKBONE|DICT|INTERRES
    55   27   91 1    
    56   28   29 2    
    57   28   30 1    
    58   30   31 1    
    59   30   32 1    
    60   30   92 1    
    61   31   93 1    
    62   31   94 1    
    63   31   95 1    
    64   32   33 am   BACKBONE|DICT|INTERRES
    65   32   96 1    
    66   33   34 2    
    67   33   35 1    
    68   35   36 1    
    69   35   37 1    
    70   35   97 1    
    71   36   98 1    
    72   36   99 1    
    73   36  100 1    
    74   37   38 am   BACKBONE|DICT|INTERRES
    75   37  101 1    
    76   38   39 2    
    77   38   40 1    
    78   40   41 1    
    79   40   42 1    
    80   40  102 1    
    81   41  103 1    
    82   41  104 1    
    83   41  105 1    
    84   42   43 am   BACKBONE|DICT|INTERRES
    85   42  106 1    
    86   43   44 2    
    87   43   45 1    
    88   45   46 1    
    89   45   49 1    
    90   45  107 1    
    91   46   47 1    
    92   46  108 1    
    93   46  109 1    
    94   47   48 1    
    95   48  110 1    
    96   48  111 1    
    97   49   50 am   BACKBONE|DICT|INTERRES
    98   49  112 1    
    99   50   51 2    
   100   50   52 1    
   101   52   53 1    
   102   52   54 1    
   103   52  113 1    
   104   53  114 1    
   105   53  115 1    
   106   53  116 1    
   107   54   55 am   BACKBONE|DICT|INTERRES
   108   54  117 1    
   109   55   56 2    
   110   55   57 1    
   111   57   58 1    
   112   57   59 1    
   113   57  118 1    
   114   58  119 1    
   115   58  120 1    
   116   58  121 1    
   117   59   60 am   BACKBONE|DICT|INTERRES
   118   59  122 1    
   119   60   61 2    
   120   60   62 1    
   121   62   63 1    
   122   62   64 1    
   123   62  123 1    
   124   63  124 1    
   125   63  125 1    
   126   63  126 1    
   127   64   65 am   BACKBONE|DICT|INTERRES
   128   64  127 1    
   129   65   66 2    
@<TRIPOS>SUBSTRUCTURE
     1 UNK         1 GROUP             0       ****    0 ROOT    
