@<TRIPOS>MOLECULE
3R135
127   129    1
SMALL
USER_CHARGES


@<TRIPOS>ATOM
      1 CA        -81.2491   28.3279  -75.6454 C.3       0 UNK        -0.1998 
      2 C         -82.5308   28.8146  -74.9713 C.2       0 UNK         0.4909 
      3 O         -83.3737   29.4039  -75.6452 O.2       0 UNK        -0.5240 
      4 N         -82.7280   28.6160  -73.6593 N.am      1 UNK        -0.4739 
      5 CA        -81.8660   27.8846  -72.7199 C.3       1 UNK         0.0864 
      6 C6        -82.3080   28.0853  -71.2488 C.3       11 UNK        -0.0881 
      7 S7        -82.3535   29.8435  -70.7592 S.3       11 UNK        -0.2682 
      8 C8        -80.8002   30.0262  -69.8120 C.3       11 UNK         0.0289 
      9 C9        -79.5139   30.0026  -70.6415 C.ar      11 UNK        -0.0687 
     10 C10       -79.4785   30.4135  -71.9807 C.ar      11 UNK        -0.0823 
     11 C11       -78.2843   30.4030  -72.7082 C.ar      11 UNK        -0.0830 
     12 C12       -77.0989   30.0343  -72.0615 C.ar      11 UNK        -0.1021 
     13 C13       -77.1125   29.6279  -70.7255 C.ar      11 UNK        -0.0753 
     14 C14       -78.3220   29.6072  -70.0253 C.ar      11 UNK        -0.0933 
     15 C15       -75.8152   29.2438  -70.0281 C.3       11 UNK         0.0166 
     16 S16       -75.5597   27.4415  -69.9831 S.3       11 UNK        -0.2615 
     17 C17       -75.0617   27.0916  -71.7030 C.3       11 UNK        -0.0865 
     18 CA        -73.5403   27.2998  -71.9531 C.3       10 UNK         0.0862 
     19 C         -72.6600   26.0567  -71.6296 C.2       10 UNK         0.5551 
     20 N         -71.5744   25.8122  -72.3565 N.am      10 UNK        -0.7319 
     21 O         -72.9524   25.3031  -70.7055 O.2       10 UNK        -0.5018 
     22 N         -73.2954   27.8078  -73.3077 N.am      10 UNK        -0.4509 
     23 C         -73.0550   29.0807  -73.6379 C.2       10 UNK         0.4899 
     24 O         -73.1101   30.0125  -72.8346 O.2       10 UNK        -0.4839 
     25 CA        -72.7119   29.3737  -75.1167 C.3       9 UNK         0.0222 
     26 CB        -71.6852   30.5185  -75.2494 C.3       9 UNK        -0.1966 
     27 N         -72.2799   28.2106  -75.9156 N.am      9 UNK        -0.4218 
     28 C         -71.2250   27.4162  -75.6711 C.2       9 UNK         0.5020 
     29 O         -70.5469   27.4940  -74.6443 O.2       9 UNK        -0.5274 
     30 CA        -70.8651   26.3583  -76.7286 C.3       8 UNK         0.0270 
     31 CB        -69.8932   25.2883  -76.1808 C.3       8 UNK        -0.1976 
     32 N         -72.0439   25.7066  -77.3091 N.am      8 UNK        -0.4313 
     33 C         -72.0339   25.1012  -78.5074 C.2       8 UNK         0.5041 
     34 O         -71.0883   25.1647  -79.2953 O.2       8 UNK        -0.5577 
     35 CA        -73.2545   24.2475  -78.8906 C.3       7 UNK         0.0284 
     36 CB        -73.2974   22.9546  -78.0608 C.3       7 UNK        -0.1958 
     37 N         -74.5214   24.9659  -78.7703 N.am      7 UNK        -0.4454 
     38 C         -74.9117   25.9479  -79.5952 C.2       7 UNK         0.5089 
     39 O         -74.2543   26.3424  -80.5588 O.2       7 UNK        -0.5125 
     40 CA        -76.2644   26.6125  -79.2863 C.3       6 UNK         0.0408 
     41 CB        -77.4193   25.8387  -79.9422 C.3       6 UNK        -0.1791 
     42 N         -76.5098   26.7435  -77.8488 N.am      6 UNK        -0.4762 
     43 C         -75.7948   27.5346  -77.0367 C.2       6 UNK         0.5007 
     44 O         -74.8662   28.2471  -77.4196 O.2       6 UNK        -0.5032 
     45 CA        -76.1370   27.4701  -75.5359 C.3       5 UNK         0.0783 
     46 C46       -77.3871   28.3140  -75.1874 C.3       11 UNK        -0.0857 
     47 S47       -77.0027   30.1007  -75.2228 S.3       11 UNK        -0.2512 
     48 C48       -78.3103   30.8294  -74.1758 C.3       11 UNK         0.0225 
     49 N         -76.2285   26.0809  -75.0732 N.am      5 UNK        -0.4615 
     50 C         -75.1759   25.2463  -75.0137 C.2       4 UNK         0.5053 
     51 O         -74.0179   25.6092  -75.2250 O.2       4 UNK        -0.5105 
     52 CA        -75.4337   23.7579  -74.7043 C.3       4 UNK         0.0263 
     53 CB        -75.1636   23.4462  -73.2254 C.3       4 UNK        -0.1981 
     54 N         -76.7771   23.3014  -75.0531 N.am      4 UNK        -0.4224 
     55 C         -77.3198   23.3345  -76.2784 C.2       3 UNK         0.4895 
     56 O         -76.6938   23.6434  -77.2922 O.2       3 UNK        -0.5091 
     57 CA        -78.8308   23.0449  -76.3750 C.3       3 UNK         0.0250 
     58 CB        -79.0703   21.6081  -76.8639 C.3       3 UNK        -0.1996 
     59 N         -79.5617   23.2629  -75.1160 N.am      3 UNK        -0.4254 
     60 C         -79.6246   24.4298  -74.4574 C.2       2 UNK         0.5004 
     61 O         -79.0897   25.4690  -74.8565 O.2       2 UNK        -0.5226 
     62 CA        -80.3062   24.4030  -73.0803 C.3       2 UNK         0.0269 
     63 CB        -79.3499   23.8181  -72.0264 C.3       2 UNK        -0.1926 
     64 N         -80.6710   25.7579  -72.6712 N.am      2 UNK        -0.4687 
     65 C         -81.7855   26.3838  -73.0617 C.2       1 UNK         0.5165 
     66 O         -82.7104   25.8284  -73.6606 O.2       1 UNK        -0.5079 
     67 H67       -80.3814   28.4229  -74.9973 H         1 UNK         0.0900 
     68 H68       -81.3477   27.2835  -75.9409 H         1 UNK         0.0900 
     69 H69       -81.0481   28.9120  -76.5432 H         1 UNK         0.0900 
     70 H70       -83.5863   28.9598  -73.2535 H         1 UNK         0.2959 
     71 H71       -80.8578   28.2846  -72.8170 H         1 UNK         0.1079 
     72 H72       -83.3047   27.6679  -71.0916 H         1 UNK         0.0837 
     73 H73       -81.6467   27.5462  -70.5674 H         1 UNK         0.0837 
     74 H74       -80.8388   30.9784  -69.2815 H         1 UNK         0.0685 
     75 H75       -80.7682   29.2512  -69.0444 H         1 UNK         0.0685 
     76 H76       -80.3861   30.7436  -72.4668 H         1 UNK         0.1434 
     77 H77       -76.1578   30.0620  -72.5933 H         1 UNK         0.1329 
     78 H78       -78.3289   29.3004  -68.9881 H         1 UNK         0.1335 
     79 H79       -74.9617   29.7219  -70.5120 H         1 UNK         0.0680 
     80 H80       -75.8303   29.6193  -69.0039 H         1 UNK         0.0680 
     81 H81       -75.3621   26.0745  -71.9494 H         1 UNK         0.1032 
     82 H82       -75.6533   27.7241  -72.3633 H         1 UNK         0.1032 
     83 H83       -73.1833   28.0543  -71.2502 H         1 UNK         0.0461 
     84 H84       -71.2775   26.4499  -73.0876 H         1 UNK         0.3453 
     85 H85       -71.0096   25.0081  -72.1354 H         1 UNK         0.3453 
     86 H86       -73.2282   27.0957  -74.0275 H         1 UNK         0.2984 
     87 H87       -73.6403   29.7237  -75.5685 H         1 UNK         0.0554 
     88 H88       -71.4780   30.7469  -76.2948 H         1 UNK         0.0847 
     89 H89       -70.7397   30.2704  -74.7659 H         1 UNK         0.0847 
     90 H90       -72.0543   31.4358  -74.7891 H         1 UNK         0.0847 
     91 H91       -72.8294   28.0448  -76.7525 H         1 UNK         0.3141 
     92 H92       -70.3492   26.9087  -77.5182 H         1 UNK         0.0743 
     93 H93       -70.3513   24.7091  -75.3781 H         1 UNK         0.0784 
     94 H94       -69.5792   24.5922  -76.9584 H         1 UNK         0.0784 
     95 H95       -68.9860   25.7436  -75.7814 H         1 UNK         0.0784 
     96 H96       -72.8522   25.6166  -76.6951 H         1 UNK         0.3213 
     97 H97       -73.1413   23.9594  -79.9383 H         1 UNK         0.0855 
     98 H98       -73.2905   23.1595  -76.9919 H         1 UNK         0.0814 
     99 H99       -72.4260   22.3335  -78.2719 H         1 UNK         0.0814 
    100 H100      -74.1829   22.3601  -78.2873 H         1 UNK         0.0814 
    101 H101      -75.1750   24.6502  -78.0595 H         1 UNK         0.3105 
    102 H102      -76.2457   27.6169  -79.7149 H         1 UNK         0.0547 
    103 H103      -78.3749   26.3369  -79.7793 H         1 UNK         0.0837 
    104 H104      -77.2733   25.7654  -81.0207 H         1 UNK         0.0837 
    105 H105      -77.5000   24.8219  -79.5570 H         1 UNK         0.0837 
    106 H106      -77.2163   26.1428  -77.4479 H         1 UNK         0.3020 
    107 H107      -75.2970   27.9145  -75.0086 H         1 UNK         0.1245 
    108 H108      -77.7411   28.0550  -74.1885 H         1 UNK         0.0781 
    109 H109      -78.2126   28.1015  -75.8684 H         1 UNK         0.0781 
    110 H110      -79.2770   30.5911  -74.6212 H         1 UNK         0.0836 
    111 H111      -78.2148   31.9151  -74.2164 H         1 UNK         0.0836 
    112 H112      -77.1666   25.7257  -74.9079 H         1 UNK         0.3022 
    113 H113      -74.7302   23.1762  -75.2985 H         1 UNK         0.0747 
    114 H114      -75.1912   22.3725  -73.0386 H         1 UNK         0.0793 
    115 H115      -74.1751   23.7954  -72.9248 H         1 UNK         0.0793 
    116 H116      -75.8966   23.9150  -72.5691 H         1 UNK         0.0793 
    117 H117      -77.3688   23.0167  -74.2876 H         1 UNK         0.3047 
    118 H118      -79.2406   23.7336  -77.1170 H         1 UNK         0.0822 
    119 H119      -78.7025   20.8706  -76.1493 H         1 UNK         0.0807 
    120 H120      -78.5583   21.4278  -77.8105 H         1 UNK         0.0807 
    121 H121      -80.1304   21.4163  -77.0309 H         1 UNK         0.0807 
    122 H122      -80.0167   22.4536  -74.7171 H         1 UNK         0.2946 
    123 H123      -81.2024   23.7803  -73.1391 H         1 UNK         0.1144 
    124 H124      -79.0774   22.7892  -72.2646 H         1 UNK         0.0793 
    125 H125      -78.4259   24.3936  -71.9523 H         1 UNK         0.0793 
    126 H126      -79.8125   23.8043  -71.0392 H         1 UNK         0.0793 
    127 H127      -79.9474   26.2883  -72.2075 H         1 UNK         0.2896 
@<TRIPOS>BOND
     1    1    2 1    
     2    1   67 1    
     3    1   68 1    
     4    1   69 1    
     5    2    3 2    
     6    2    4 am   BACKBONE|DICT|INTERRES
     7    4    5 1    
     8    4   70 1    
     9    5    6 1    
    10    5   65 1    
    11    5   71 1    
    12    6    7 1    
    13    6   72 1    
    14    6   73 1    
    15    7    8 1    
    16    8    9 1    
    17    8   74 1    
    18    8   75 1    
    19    9   10 ar   
    20    9   14 ar   
    21   10   11 ar   
    22   10   76 1    
    23   11   12 ar   
    24   11   48 1    
    25   12   13 ar   
    26   12   77 1    
    27   13   14 ar   
    28   13   15 1    
    29   14   78 1    
    30   15   16 1    
    31   15   79 1    
    32   15   80 1    
    33   16   17 1    
    34   17   18 1    
    35   17   81 1    
    36   17   82 1    
    37   18   19 1    
    38   18   22 1    
    39   18   83 1    
    40   19   20 am   BACKBONE|DICT|INTERRES
    41   19   21 2    
    42   20   84 1    
    43   20   85 1    
    44   22   23 am   BACKBONE|DICT|INTERRES
    45   22   86 1    
    46   23   24 2    
    47   23   25 1    
    48   25   26 1    
    49   25   27 1    
    50   25   87 1    
    51   26   88 1    
    52   26   89 1    
    53   26   90 1    
    54   27   28 am   BACKBONE|DICT|INTERRES
    55   27   91 1    
    56   28   29 2    
    57   28   30 1    
    58   30   31 1    
    59   30   32 1    
    60   30   92 1    
    61   31   93 1    
    62   31   94 1    
    63   31   95 1    
    64   32   33 am   BACKBONE|DICT|INTERRES
    65   32   96 1    
    66   33   34 2    
    67   33   35 1    
    68   35   36 1    
    69   35   37 1    
    70   35   97 1    
    71   36   98 1    
    72   36   99 1    
    73   36  100 1    
    74   37   38 am   BACKBONE|DICT|INTERRES
    75   37  101 1    
    76   38   39 2    
    77   38   40 1    
    78   40   41 1    
    79   40   42 1    
    80   40  102 1    
    81   41  103 1    
    82   41  104 1    
    83   41  105 1    
    84   42   43 am   BACKBONE|DICT|INTERRES
    85   42  106 1    
    86   43   44 2    
    87   43   45 1    
    88   45   46 1    
    89   45   49 1    
    90   45  107 1    
    91   46   47 1    
    92   46  108 1    
    93   46  109 1    
    94   47   48 1    
    95   48  110 1    
    96   48  111 1    
    97   49   50 am   BACKBONE|DICT|INTERRES
    98   49  112 1    
    99   50   51 2    
   100   50   52 1    
   101   52   53 1    
   102   52   54 1    
   103   52  113 1    
   104   53  114 1    
   105   53  115 1    
   106   53  116 1    
   107   54   55 am   BACKBONE|DICT|INTERRES
   108   54  117 1    
   109   55   56 2    
   110   55   57 1    
   111   57   58 1    
   112   57   59 1    
   113   57  118 1    
   114   58  119 1    
   115   58  120 1    
   116   58  121 1    
   117   59   60 am   BACKBONE|DICT|INTERRES
   118   59  122 1    
   119   60   61 2    
   120   60   62 1    
   121   62   63 1    
   122   62   64 1    
   123   62  123 1    
   124   63  124 1    
   125   63  125 1    
   126   63  126 1    
   127   64   65 am   BACKBONE|DICT|INTERRES
   128   64  127 1    
   129   65   66 2    
@<TRIPOS>SUBSTRUCTURE
     1 UNK         1 GROUP             0       ****    0 ROOT    
