@<TRIPOS>MOLECULE
3R135
127   129    1
SMALL
USER_CHARGES


@<TRIPOS>ATOM
      1 CA        -83.2496   30.9871  -73.1698 C.3       0 UNK        -0.1998 
      2 C         -82.6805   30.3399  -74.4237 C.2       0 UNK         0.4909 
      3 O         -83.2075   30.5531  -75.5165 O.2       0 UNK        -0.5240 
      4 N         -81.6045   29.5580  -74.2751 N.am      1 UNK        -0.4739 
      5 CA        -80.9633   28.8092  -75.3612 C.3       1 UNK         0.0864 
      6 C6        -79.5253   28.3693  -74.9938 C.3       11 UNK        -0.0881 
      7 S7        -78.4047   29.7733  -74.6851 S.3       11 UNK        -0.2682 
      8 C8        -78.2651   29.7516  -72.8688 C.3       11 UNK         0.0289 
      9 C9        -77.3823   28.6184  -72.3623 C.ar      11 UNK        -0.0687 
     10 C10       -77.9285   27.5498  -71.6440 C.ar      11 UNK        -0.0823 
     11 C11       -77.1041   26.5364  -71.1424 C.ar      11 UNK        -0.0830 
     12 C12       -75.7234   26.6088  -71.3480 C.ar      11 UNK        -0.1021 
     13 C13       -75.1685   27.6543  -72.0918 C.ar      11 UNK        -0.0753 
     14 C14       -76.0058   28.6539  -72.5951 C.ar      11 UNK        -0.0933 
     15 C15       -73.6854   27.6450  -72.4377 C.3       11 UNK         0.0166 
     16 S16       -72.6528   28.6390  -71.3136 S.3       11 UNK        -0.2615 
     17 C17       -73.0836   30.3710  -71.7189 C.3       11 UNK        -0.0865 
     18 CA        -72.4076   30.9669  -72.9878 C.3       10 UNK         0.0862 
     19 C         -70.8572   31.0769  -72.9228 C.2       10 UNK         0.5551 
     20 N         -70.1480   30.9941  -74.0434 N.am      10 UNK        -0.7319 
     21 O         -70.2875   31.2793  -71.8531 O.2       10 UNK        -0.5018 
     22 N         -72.8832   30.3415  -74.2297 N.am      10 UNK        -0.4509 
     23 C         -73.8719   30.8052  -75.0040 C.2       10 UNK         0.4899 
     24 O         -74.5624   31.7802  -74.7046 O.2       10 UNK        -0.4839 
     25 CA        -74.1558   30.0579  -76.3282 C.3       9 UNK         0.0222 
     26 CB        -74.6762   31.0036  -77.4299 C.3       9 UNK        -0.1966 
     27 N         -73.0367   29.2536  -76.8399 N.am      9 UNK        -0.4218 
     28 C         -71.7808   29.6590  -77.0980 C.2       9 UNK         0.5020 
     29 O         -71.3950   30.8211  -76.9571 O.2       9 UNK        -0.5274 
     30 CA        -70.7722   28.5744  -77.5393 C.3       8 UNK         0.0270 
     31 CB        -69.3174   28.9340  -77.1682 C.3       8 UNK        -0.1976 
     32 N         -71.1021   27.2261  -77.0551 N.am      8 UNK        -0.4313 
     33 C         -71.2962   26.8489  -75.7825 C.2       8 UNK         0.5041 
     34 O         -71.1949   27.6021  -74.8115 O.2       8 UNK        -0.5577 
     35 CA        -71.7725   25.4014  -75.5763 C.3       7 UNK         0.0284 
     36 CB        -70.9510   24.6980  -74.4831 C.3       7 UNK        -0.1958 
     37 N         -73.1901   25.3501  -75.2125 N.am      7 UNK        -0.4454 
     38 C         -74.2199   25.8598  -75.8971 C.2       7 UNK         0.5089 
     39 O         -74.0878   26.4213  -76.9874 O.2       7 UNK        -0.5125 
     40 CA        -75.6232   25.7664  -75.2521 C.3       6 UNK         0.0408 
     41 CB        -76.7336   26.1437  -76.2455 C.3       6 UNK        -0.1791 
     42 N         -75.9900   24.4891  -74.6221 N.am      6 UNK        -0.4762 
     43 C         -75.4267   23.8925  -73.5583 C.2       6 UNK         0.5007 
     44 O         -74.3840   24.2762  -73.0291 O.2       6 UNK        -0.5032 
     45 CA        -76.1360   22.6612  -72.9550 C.3       5 UNK         0.0783 
     46 C46       -76.6808   22.9582  -71.5319 C.3       11 UNK        -0.0857 
     47 S47       -78.1853   24.0012  -71.4894 S.3       11 UNK        -0.2512 
     48 C48       -77.7087   25.3673  -70.3782 C.3       11 UNK         0.0225 
     49 N         -77.1664   22.0845  -73.8239 N.am      5 UNK        -0.4615 
     50 C         -76.9361   21.4124  -74.9588 C.2       4 UNK         0.5053 
     51 O         -75.8066   21.1578  -75.3769 O.2       4 UNK        -0.5105 
     52 CA        -78.1590   20.9428  -75.7722 C.3       4 UNK         0.0263 
     53 CB        -78.3106   19.4154  -75.6760 C.3       4 UNK        -0.1981 
     54 N         -79.4336   21.5705  -75.3991 N.am      4 UNK        -0.4224 
     55 C         -79.7322   22.8684  -75.5464 C.2       3 UNK         0.4895 
     56 O         -78.9299   23.7139  -75.9476 O.2       3 UNK        -0.5091 
     57 CA        -81.1500   23.2848  -75.1164 C.3       3 UNK         0.0250 
     58 CB        -81.1954   23.5512  -73.6035 C.3       3 UNK        -0.1996 
     59 N         -81.6223   24.4828  -75.8099 N.am      3 UNK        -0.4254 
     60 C         -81.8901   24.5861  -77.1163 C.2       2 UNK         0.5004 
     61 O         -81.8225   23.6389  -77.9011 O.2       2 UNK        -0.5226 
     62 CA        -82.3103   25.9707  -77.6532 C.3       2 UNK         0.0269 
     63 CB        -83.8456   26.1117  -77.6637 C.3       2 UNK        -0.1926 
     64 N         -81.6710   27.1312  -77.0041 N.am      2 UNK        -0.4687 
     65 C         -81.8059   27.5758  -75.7451 C.2       1 UNK         0.5165 
     66 O         -82.5008   27.0186  -74.8911 O.2       1 UNK        -0.5079 
     67 H67       -83.2445   32.0720  -73.2721 H         1 UNK         0.0900 
     68 H68       -84.2787   30.6637  -73.0153 H         1 UNK         0.0900 
     69 H69       -82.6755   30.7281  -72.2804 H         1 UNK         0.0900 
     70 H70       -81.2349   29.3917  -73.3516 H         1 UNK         0.2959 
     71 H71       -80.9103   29.4638  -76.2346 H         1 UNK         0.1079 
     72 H72       -79.0951   27.8131  -75.8259 H         1 UNK         0.0837 
     73 H73       -79.5236   27.6897  -74.1395 H         1 UNK         0.0837 
     74 H74       -77.8364   30.7010  -72.5446 H         1 UNK         0.0685 
     75 H75       -79.2596   29.7021  -72.4242 H         1 UNK         0.0685 
     76 H76       -78.9953   27.5049  -71.4732 H         1 UNK         0.1434 
     77 H77       -75.0828   25.8248  -70.9683 H         1 UNK         0.1329 
     78 H78       -75.5947   29.4586  -73.1854 H         1 UNK         0.1335 
     79 H79       -73.3096   26.6221  -72.4041 H         1 UNK         0.0680 
     80 H80       -73.5448   27.9620  -73.4688 H         1 UNK         0.0680 
     81 H81       -72.8075   30.9758  -70.8535 H         1 UNK         0.1032 
     82 H82       -74.1644   30.4770  -71.7847 H         1 UNK         0.1032 
     83 H83       -72.7097   32.0153  -73.0152 H         1 UNK         0.0461 
     84 H84       -69.1453   31.0772  -73.9960 H         1 UNK         0.3453 
     85 H85       -70.6063   30.9002  -74.9408 H         1 UNK         0.3453 
     86 H86       -72.3494   29.5334  -74.5317 H         1 UNK         0.2984 
     87 H87       -74.9523   29.3475  -76.1009 H         1 UNK         0.0554 
     88 H88       -74.9054   30.4586  -78.3455 H         1 UNK         0.0847 
     89 H89       -73.9470   31.7773  -77.6727 H         1 UNK         0.0847 
     90 H90       -75.5933   31.5053  -77.1180 H         1 UNK         0.0847 
     91 H91       -73.2445   28.2674  -76.9735 H         1 UNK         0.3141 
     92 H92       -70.8361   28.5342  -78.6276 H         1 UNK         0.0743 
     93 H93       -68.6195   28.1763  -77.5240 H         1 UNK         0.0784 
     94 H94       -69.0175   29.8821  -77.6165 H         1 UNK         0.0784 
     95 H95       -69.1874   29.0271  -76.0896 H         1 UNK         0.0784 
     96 H96       -71.2727   26.5397  -77.7782 H         1 UNK         0.3213 
     97 H97       -71.6466   24.8460  -76.5077 H         1 UNK         0.0855 
     98 H98       -69.8867   24.7171  -74.7211 H         1 UNK         0.0814 
     99 H99       -71.2422   23.6528  -74.3777 H         1 UNK         0.0814 
    100 H100      -71.0771   25.1796  -73.5121 H         1 UNK         0.0814 
    101 H101      -73.4176   24.9291  -74.3120 H         1 UNK         0.3105 
    102 H102      -75.6409   26.5165  -74.4648 H         1 UNK         0.0547 
    103 H103      -77.7119   26.0814  -75.7730 H         1 UNK         0.0837 
    104 H104      -76.7419   25.4795  -77.1105 H         1 UNK         0.0837 
    105 H105      -76.6112   27.1644  -76.6106 H         1 UNK         0.0837 
    106 H106      -76.8379   24.0668  -74.9807 H         1 UNK         0.3020 
    107 H107      -75.3534   21.9065  -72.8457 H         1 UNK         0.1245 
    108 H108      -75.9013   23.3985  -70.9076 H         1 UNK         0.0781 
    109 H109      -76.9330   22.0147  -71.0456 H         1 UNK         0.0781 
    110 H110      -77.0214   25.0111  -69.6095 H         1 UNK         0.0836 
    111 H111      -78.5992   25.7037  -69.8451 H         1 UNK         0.0836 
    112 H112      -78.1215   22.2640  -73.5508 H         1 UNK         0.3022 
    113 H113      -77.9608   21.2002  -76.8149 H         1 UNK         0.0747 
    114 H114      -79.1088   19.0529  -76.3241 H         1 UNK         0.0793 
    115 H115      -77.3940   18.9101  -75.9842 H         1 UNK         0.0793 
    116 H116      -78.5315   19.0953  -74.6569 H         1 UNK         0.0793 
    117 H117      -80.1446   20.9510  -75.0365 H         1 UNK         0.3047 
    118 H118      -81.8369   22.4696  -75.3534 H         1 UNK         0.0822 
    119 H119      -80.5622   24.3957  -73.3279 H         1 UNK         0.0807 
    120 H120      -80.8534   22.6855  -73.0347 H         1 UNK         0.0807 
    121 H121      -82.2093   23.7745  -73.2710 H         1 UNK         0.0807 
    122 H122      -81.7599   25.3168  -75.2478 H         1 UNK         0.2946 
    123 H123      -81.9770   25.9990  -78.6924 H         1 UNK         0.1144 
    124 H124      -84.3054   25.3082  -78.2407 H         1 UNK         0.0793 
    125 H125      -84.2676   26.0685  -76.6592 H         1 UNK         0.0793 
    126 H126      -84.1546   27.0533  -78.1175 H         1 UNK         0.0793 
    127 H127      -81.0368   27.6397  -77.6057 H         1 UNK         0.2896 
@<TRIPOS>BOND
     1    1    2 1    
     2    1   67 1    
     3    1   68 1    
     4    1   69 1    
     5    2    3 2    
     6    2    4 am   BACKBONE|DICT|INTERRES
     7    4    5 1    
     8    4   70 1    
     9    5    6 1    
    10    5   65 1    
    11    5   71 1    
    12    6    7 1    
    13    6   72 1    
    14    6   73 1    
    15    7    8 1    
    16    8    9 1    
    17    8   74 1    
    18    8   75 1    
    19    9   10 ar   
    20    9   14 ar   
    21   10   11 ar   
    22   10   76 1    
    23   11   12 ar   
    24   11   48 1    
    25   12   13 ar   
    26   12   77 1    
    27   13   14 ar   
    28   13   15 1    
    29   14   78 1    
    30   15   16 1    
    31   15   79 1    
    32   15   80 1    
    33   16   17 1    
    34   17   18 1    
    35   17   81 1    
    36   17   82 1    
    37   18   19 1    
    38   18   22 1    
    39   18   83 1    
    40   19   20 am   BACKBONE|DICT|INTERRES
    41   19   21 2    
    42   20   84 1    
    43   20   85 1    
    44   22   23 am   BACKBONE|DICT|INTERRES
    45   22   86 1    
    46   23   24 2    
    47   23   25 1    
    48   25   26 1    
    49   25   27 1    
    50   25   87 1    
    51   26   88 1    
    52   26   89 1    
    53   26   90 1    
    54   27   28 am   BACKBONE|DICT|INTERRES
    55   27   91 1    
    56   28   29 2    
    57   28   30 1    
    58   30   31 1    
    59   30   32 1    
    60   30   92 1    
    61   31   93 1    
    62   31   94 1    
    63   31   95 1    
    64   32   33 am   BACKBONE|DICT|INTERRES
    65   32   96 1    
    66   33   34 2    
    67   33   35 1    
    68   35   36 1    
    69   35   37 1    
    70   35   97 1    
    71   36   98 1    
    72   36   99 1    
    73   36  100 1    
    74   37   38 am   BACKBONE|DICT|INTERRES
    75   37  101 1    
    76   38   39 2    
    77   38   40 1    
    78   40   41 1    
    79   40   42 1    
    80   40  102 1    
    81   41  103 1    
    82   41  104 1    
    83   41  105 1    
    84   42   43 am   BACKBONE|DICT|INTERRES
    85   42  106 1    
    86   43   44 2    
    87   43   45 1    
    88   45   46 1    
    89   45   49 1    
    90   45  107 1    
    91   46   47 1    
    92   46  108 1    
    93   46  109 1    
    94   47   48 1    
    95   48  110 1    
    96   48  111 1    
    97   49   50 am   BACKBONE|DICT|INTERRES
    98   49  112 1    
    99   50   51 2    
   100   50   52 1    
   101   52   53 1    
   102   52   54 1    
   103   52  113 1    
   104   53  114 1    
   105   53  115 1    
   106   53  116 1    
   107   54   55 am   BACKBONE|DICT|INTERRES
   108   54  117 1    
   109   55   56 2    
   110   55   57 1    
   111   57   58 1    
   112   57   59 1    
   113   57  118 1    
   114   58  119 1    
   115   58  120 1    
   116   58  121 1    
   117   59   60 am   BACKBONE|DICT|INTERRES
   118   59  122 1    
   119   60   61 2    
   120   60   62 1    
   121   62   63 1    
   122   62   64 1    
   123   62  123 1    
   124   63  124 1    
   125   63  125 1    
   126   63  126 1    
   127   64   65 am   BACKBONE|DICT|INTERRES
   128   64  127 1    
   129   65   66 2    
@<TRIPOS>SUBSTRUCTURE
     1 UNK         1 GROUP             0       ****    0 ROOT    
