@<TRIPOS>MOLECULE
3R135
127   129    1
SMALL
USER_CHARGES


@<TRIPOS>ATOM
      1 CA        -80.0842   21.5408  -72.4175 C.3       0 UNK        -0.1998 
      2 C         -80.8712   22.7852  -72.7970 C.2       0 UNK         0.4909 
      3 O         -81.5408   22.7947  -73.8306 O.2       0 UNK        -0.5240 
      4 N         -80.7879   23.8424  -71.9791 N.am      1 UNK        -0.4739 
      5 CA        -81.4304   25.1411  -72.2077 C.3       1 UNK         0.0864 
      6 C6        -81.3040   26.0886  -70.9865 C.3       11 UNK        -0.0881 
      7 S7        -79.6154   26.2368  -70.2948 S.3       11 UNK        -0.2682 
      8 C8        -79.6570   27.9172  -69.5970 C.3       11 UNK         0.0289 
      9 C9        -78.8188   28.8972  -70.4065 C.ar      11 UNK        -0.0687 
     10 C10       -79.2799   29.3905  -71.6312 C.ar      11 UNK        -0.0823 
     11 C11       -78.5288   30.3341  -72.3397 C.ar      11 UNK        -0.0830 
     12 C12       -77.3224   30.7934  -71.8065 C.ar      11 UNK        -0.1021 
     13 C13       -76.8233   30.2792  -70.6026 C.ar      11 UNK        -0.0753 
     14 C14       -77.5862   29.3336  -69.9106 C.ar      11 UNK        -0.0933 
     15 C15       -75.4759   30.6956  -70.0026 C.3       11 UNK         0.0166 
     16 S16       -74.4719   31.8792  -70.9711 S.3       11 UNK        -0.2615 
     17 C17       -74.0808   30.9124  -72.4699 C.3       11 UNK        -0.0865 
     18 CA        -72.6206   30.3972  -72.5200 C.3       10 UNK         0.0862 
     19 C         -72.4539   29.0914  -71.6879 C.2       10 UNK         0.5551 
     20 N         -72.5466   27.9157  -72.2994 N.am      10 UNK        -0.7319 
     21 O         -72.2269   29.1472  -70.4822 O.2       10 UNK        -0.5018 
     22 N         -72.1863   30.2577  -73.9156 N.am      10 UNK        -0.4509 
     23 C         -70.9252   30.0699  -74.3148 C.2       10 UNK         0.4899 
     24 O         -69.9428   30.1383  -73.5741 O.2       10 UNK        -0.4839 
     25 CA        -70.7501   29.6926  -75.7962 C.3       9 UNK         0.0222 
     26 CB        -69.4626   30.2910  -76.3909 C.3       9 UNK        -0.1966 
     27 N         -70.7357   28.2384  -75.9779 N.am      9 UNK        -0.4218 
     28 C         -71.7553   27.4070  -75.7208 C.2       9 UNK         0.5020 
     29 O         -72.8542   27.7671  -75.2948 O.2       9 UNK        -0.5274 
     30 CA        -71.4863   25.9159  -75.9257 C.3       8 UNK         0.0270 
     31 CB        -71.2883   25.2110  -74.5732 C.3       8 UNK        -0.1976 
     32 N         -72.6240   25.3146  -76.6174 N.am      8 UNK        -0.4313 
     33 C         -72.5243   24.5374  -77.7018 C.2       8 UNK         0.5041 
     34 O         -71.4545   24.2465  -78.2407 O.2       8 UNK        -0.5577 
     35 CA        -73.8229   23.9602  -78.2855 C.3       7 UNK         0.0284 
     36 CB        -74.2094   22.6704  -77.5440 C.3       7 UNK        -0.1958 
     37 N         -74.9535   24.8925  -78.2859 N.am      7 UNK        -0.4454 
     38 C         -75.0357   25.9875  -79.0558 C.2       7 UNK         0.5089 
     39 O         -74.1354   26.3682  -79.8050 O.2       7 UNK        -0.5125 
     40 CA        -76.3560   26.7765  -79.0120 C.3       6 UNK         0.0408 
     41 CB        -77.4323   26.0817  -79.8614 C.3       6 UNK        -0.1791 
     42 N         -76.8545   26.9636  -77.6506 N.am      6 UNK        -0.4762 
     43 C         -76.3378   27.8298  -76.7661 C.2       6 UNK         0.5007 
     44 O         -75.4388   28.6255  -77.0393 O.2       6 UNK        -0.5032 
     45 CA        -76.9204   27.7902  -75.3352 C.3       5 UNK         0.0783 
     46 C46       -78.2080   28.6497  -75.2290 C.3       11 UNK        -0.0857 
     47 S47       -77.8855   30.4334  -75.0459 S.3       11 UNK        -0.2512 
     48 C48       -79.0125   30.8750  -73.6787 C.3       11 UNK         0.0225 
     49 N         -77.1777   26.4218  -74.8738 N.am      5 UNK        -0.4615 
     50 C         -76.2894   25.4207  -74.7990 C.2       4 UNK         0.5053 
     51 O         -75.0933   25.5258  -75.0653 O.2       4 UNK        -0.5105 
     52 CA        -76.8562   24.0434  -74.4222 C.3       4 UNK         0.0263 
     53 CB        -77.0428   23.9190  -72.9013 C.3       4 UNK        -0.1981 
     54 N         -78.1209   23.7708  -75.1119 N.am      4 UNK        -0.4224 
     55 C         -78.2282   23.5677  -76.4337 C.2       3 UNK         0.4895 
     56 O         -77.2678   23.5389  -77.2004 O.2       3 UNK        -0.5091 
     57 CA        -79.6452   23.4218  -77.0088 C.3       3 UNK         0.0250 
     58 CB        -80.1521   21.9790  -76.8582 C.3       3 UNK        -0.1996 
     59 N         -80.5885   24.3594  -76.3954 N.am      3 UNK        -0.4254 
     60 C         -80.5556   25.6852  -76.6051 C.2       2 UNK         0.5004 
     61 O         -79.7650   26.2324  -77.3732 O.2       2 UNK        -0.5226 
     62 CA        -81.5327   26.5587  -75.7956 C.3       2 UNK         0.0269 
     63 CB        -82.8405   26.7648  -76.5755 C.3       2 UNK        -0.1926 
     64 N         -81.8381   26.0334  -74.4605 N.am      2 UNK        -0.4687 
     65 C         -80.9241   25.7903  -73.5107 C.2       1 UNK         0.5165 
     66 O         -79.7210   26.0087  -73.6573 O.2       1 UNK        -0.5079 
     67 H67       -79.5245   21.6791  -71.4927 H         1 UNK         0.0900 
     68 H68       -80.7607   20.6975  -72.2823 H         1 UNK         0.0900 
     69 H69       -79.3780   21.2875  -73.2079 H         1 UNK         0.0900 
     70 H70       -80.1958   23.8017  -71.1613 H         1 UNK         0.2959 
     71 H71       -82.4955   24.9366  -72.3387 H         1 UNK         0.1079 
     72 H72       -81.9470   25.7228  -70.1845 H         1 UNK         0.0837 
     73 H73       -81.6911   27.0776  -71.2385 H         1 UNK         0.0837 
     74 H74       -80.6822   28.2823  -69.5242 H         1 UNK         0.0685 
     75 H75       -79.2904   27.8667  -68.5706 H         1 UNK         0.0685 
     76 H76       -80.2231   29.0405  -72.0274 H         1 UNK         0.1434 
     77 H77       -76.7713   31.5386  -72.3607 H         1 UNK         0.1329 
     78 H78       -77.2201   28.9406  -68.9716 H         1 UNK         0.1335 
     79 H79       -74.8775   29.8012  -69.8242 H         1 UNK         0.0680 
     80 H80       -75.6598   31.1401  -69.0235 H         1 UNK         0.0680 
     81 H81       -74.2667   31.5849  -73.3092 H         1 UNK         0.1032 
     82 H82       -74.7855   30.0892  -72.6024 H         1 UNK         0.1032 
     83 H83       -71.9743   31.1525  -72.0680 H         1 UNK         0.0461 
     84 H84       -72.4365   27.0708  -71.7632 H         1 UNK         0.3453 
     85 H85       -72.7340   27.8687  -73.2955 H         1 UNK         0.3453 
     86 H86       -72.9173   30.0821  -74.5914 H         1 UNK         0.2984 
     87 H87       -71.5953   30.0954  -76.3589 H         1 UNK         0.0554 
     88 H88       -69.4423   31.3742  -76.2629 H         1 UNK         0.0847 
     89 H89       -69.3885   30.0920  -77.4602 H         1 UNK         0.0847 
     90 H90       -68.5678   29.8909  -75.9122 H         1 UNK         0.0847 
     91 H91       -69.8601   27.8398  -76.2851 H         1 UNK         0.3141 
     92 H92       -70.5724   25.8062  -76.5132 H         1 UNK         0.0743 
     93 H93       -72.1841   25.2736  -73.9534 H         1 UNK         0.0784 
     94 H94       -71.0507   24.1559  -74.7096 H         1 UNK         0.0784 
     95 H95       -70.4681   25.6604  -74.0118 H         1 UNK         0.0784 
     96 H96       -73.5403   25.5322  -76.2259 H         1 UNK         0.3213 
     97 H97       -73.6191   23.6962  -79.3255 H         1 UNK         0.0855 
     98 H98       -74.4797   22.8694  -76.5067 H         1 UNK         0.0814 
     99 H99       -73.3818   21.9597  -77.5357 H         1 UNK         0.0814 
    100 H100      -75.0541   22.1751  -78.0228 H         1 UNK         0.0814 
    101 H101      -75.7646   24.6182  -77.7376 H         1 UNK         0.3105 
    102 H102      -76.1724   27.7608  -79.4483 H         1 UNK         0.0547 
    103 H103      -78.3488   26.6708  -79.8975 H         1 UNK         0.0837 
    104 H104      -77.6863   25.0964  -79.4692 H         1 UNK         0.0837 
    105 H105      -77.0921   25.9469  -80.8890 H         1 UNK         0.0837 
    106 H106      -77.6486   26.3980  -77.3708 H         1 UNK         0.3020 
    107 H107      -76.1612   28.2002  -74.6650 H         1 UNK         0.1245 
    108 H108      -78.7884   28.3326  -74.3627 H         1 UNK         0.0781 
    109 H109      -78.8620   28.4982  -76.0892 H         1 UNK         0.0781 
    110 H110      -80.0181   30.5191  -73.9085 H         1 UNK         0.0836 
    111 H111      -79.0804   31.9620  -73.6166 H         1 UNK         0.0836 
    112 H112      -78.1285   26.2308  -74.5648 H         1 UNK         0.3022 
    113 H113      -76.1320   23.2884  -74.7344 H         1 UNK         0.0747 
    114 H114      -77.3674   22.9172  -72.6221 H         1 UNK         0.0793 
    115 H115      -76.1039   24.1099  -72.3798 H         1 UNK         0.0793 
    116 H116      -77.7747   24.6303  -72.5176 H         1 UNK         0.0793 
    117 H117      -78.9669   23.8627  -74.5684 H         1 UNK         0.3047 
    118 H118      -79.5929   23.6478  -78.0764 H         1 UNK         0.0822 
    119 H119      -81.1489   21.8616  -77.2835 H         1 UNK         0.0807 
    120 H120      -80.1933   21.6661  -75.8150 H         1 UNK         0.0807 
    121 H121      -79.4939   21.2819  -77.3785 H         1 UNK         0.0807 
    122 H122      -81.2389   23.9821  -75.7158 H         1 UNK         0.2946 
    123 H123      -81.0590   27.5332  -75.6626 H         1 UNK         0.1144 
    124 H124      -83.3804   25.8273  -76.7147 H         1 UNK         0.0793 
    125 H125      -82.6425   27.1771  -77.5661 H         1 UNK         0.0793 
    126 H126      -83.5031   27.4629  -76.0636 H         1 UNK         0.0793 
    127 H127      -82.8046   25.8019  -74.2795 H         1 UNK         0.2896 
@<TRIPOS>BOND
     1    1    2 1    
     2    1   67 1    
     3    1   68 1    
     4    1   69 1    
     5    2    3 2    
     6    2    4 am   BACKBONE|DICT|INTERRES
     7    4    5 1    
     8    4   70 1    
     9    5    6 1    
    10    5   65 1    
    11    5   71 1    
    12    6    7 1    
    13    6   72 1    
    14    6   73 1    
    15    7    8 1    
    16    8    9 1    
    17    8   74 1    
    18    8   75 1    
    19    9   10 ar   
    20    9   14 ar   
    21   10   11 ar   
    22   10   76 1    
    23   11   12 ar   
    24   11   48 1    
    25   12   13 ar   
    26   12   77 1    
    27   13   14 ar   
    28   13   15 1    
    29   14   78 1    
    30   15   16 1    
    31   15   79 1    
    32   15   80 1    
    33   16   17 1    
    34   17   18 1    
    35   17   81 1    
    36   17   82 1    
    37   18   19 1    
    38   18   22 1    
    39   18   83 1    
    40   19   20 am   BACKBONE|DICT|INTERRES
    41   19   21 2    
    42   20   84 1    
    43   20   85 1    
    44   22   23 am   BACKBONE|DICT|INTERRES
    45   22   86 1    
    46   23   24 2    
    47   23   25 1    
    48   25   26 1    
    49   25   27 1    
    50   25   87 1    
    51   26   88 1    
    52   26   89 1    
    53   26   90 1    
    54   27   28 am   BACKBONE|DICT|INTERRES
    55   27   91 1    
    56   28   29 2    
    57   28   30 1    
    58   30   31 1    
    59   30   32 1    
    60   30   92 1    
    61   31   93 1    
    62   31   94 1    
    63   31   95 1    
    64   32   33 am   BACKBONE|DICT|INTERRES
    65   32   96 1    
    66   33   34 2    
    67   33   35 1    
    68   35   36 1    
    69   35   37 1    
    70   35   97 1    
    71   36   98 1    
    72   36   99 1    
    73   36  100 1    
    74   37   38 am   BACKBONE|DICT|INTERRES
    75   37  101 1    
    76   38   39 2    
    77   38   40 1    
    78   40   41 1    
    79   40   42 1    
    80   40  102 1    
    81   41  103 1    
    82   41  104 1    
    83   41  105 1    
    84   42   43 am   BACKBONE|DICT|INTERRES
    85   42  106 1    
    86   43   44 2    
    87   43   45 1    
    88   45   46 1    
    89   45   49 1    
    90   45  107 1    
    91   46   47 1    
    92   46  108 1    
    93   46  109 1    
    94   47   48 1    
    95   48  110 1    
    96   48  111 1    
    97   49   50 am   BACKBONE|DICT|INTERRES
    98   49  112 1    
    99   50   51 2    
   100   50   52 1    
   101   52   53 1    
   102   52   54 1    
   103   52  113 1    
   104   53  114 1    
   105   53  115 1    
   106   53  116 1    
   107   54   55 am   BACKBONE|DICT|INTERRES
   108   54  117 1    
   109   55   56 2    
   110   55   57 1    
   111   57   58 1    
   112   57   59 1    
   113   57  118 1    
   114   58  119 1    
   115   58  120 1    
   116   58  121 1    
   117   59   60 am   BACKBONE|DICT|INTERRES
   118   59  122 1    
   119   60   61 2    
   120   60   62 1    
   121   62   63 1    
   122   62   64 1    
   123   62  123 1    
   124   63  124 1    
   125   63  125 1    
   126   63  126 1    
   127   64   65 am   BACKBONE|DICT|INTERRES
   128   64  127 1    
   129   65   66 2    
@<TRIPOS>SUBSTRUCTURE
     1 UNK         1 GROUP             0       ****    0 ROOT    
