@<TRIPOS>MOLECULE
3R135
127   129    1
SMALL
USER_CHARGES


@<TRIPOS>ATOM
      1 CA        -77.2847   24.1683  -67.9671 C.3       0 UNK        -0.1998 
      2 C         -78.2248   24.5687  -69.0937 C.2       0 UNK         0.4909 
      3 O         -79.4233   24.2911  -69.0228 O.2       0 UNK        -0.5240 
      4 N         -77.6942   25.2127  -70.1408 N.am      1 UNK        -0.4739 
      5 CA        -78.4358   25.6862  -71.3168 C.3       1 UNK         0.0864 
      6 C6        -77.7315   26.8887  -71.9946 C.3       11 UNK        -0.0881 
      7 S7        -77.5280   28.3024  -70.8570 S.3       11 UNK        -0.2682 
      8 C8        -79.0595   29.2503  -71.1332 C.3       11 UNK         0.0289 
      9 C9        -79.0912   29.8850  -72.5146 C.ar      11 UNK        -0.0687 
     10 C10       -79.9230   29.3684  -73.5117 C.ar      11 UNK        -0.0823 
     11 C11       -79.9204   29.9261  -74.7925 C.ar      11 UNK        -0.0830 
     12 C12       -79.0876   31.0139  -75.0691 C.ar      11 UNK        -0.1021 
     13 C13       -78.2524   31.5429  -74.0818 C.ar      11 UNK        -0.0753 
     14 C14       -78.2749   30.9833  -72.7985 C.ar      11 UNK        -0.0933 
     15 C15       -77.3372   32.7146  -74.4304 C.3       11 UNK         0.0166 
     16 S16       -75.6854   32.6408  -73.6584 S.3       11 UNK        -0.2615 
     17 C17       -75.0769   31.0057  -74.2018 C.3       11 UNK        -0.0865 
     18 CA        -73.7838   30.5795  -73.4564 C.3       10 UNK         0.0862 
     19 C         -74.0626   29.9914  -72.0373 C.2       10 UNK         0.5551 
     20 N         -73.6418   28.7722  -71.7182 N.am      10 UNK        -0.7319 
     21 O         -74.6445   30.6658  -71.1922 O.2       10 UNK        -0.5018 
     22 N         -72.9549   29.7151  -74.3083 N.am      10 UNK        -0.4509 
     23 C         -71.6181   29.6505  -74.2418 C.2       10 UNK         0.4899 
     24 O         -70.9336   30.3852  -73.5275 O.2       10 UNK        -0.4839 
     25 CA        -70.9326   28.5833  -75.1176 C.3       9 UNK         0.0222 
     26 CB        -69.5011   28.2495  -74.6460 C.3       9 UNK        -0.1966 
     27 N         -71.7257   27.3574  -75.2693 N.am      9 UNK        -0.4218 
     28 C         -72.1573   26.5386  -74.2943 C.2       9 UNK         0.5020 
     29 O         -71.9305   26.7331  -73.0994 O.2       9 UNK        -0.5274 
     30 CA        -73.0086   25.3188  -74.7017 C.3       8 UNK         0.0270 
     31 CB        -74.2597   25.1874  -73.8121 C.3       8 UNK        -0.1976 
     32 N         -73.4182   25.3831  -76.1071 N.am      8 UNK        -0.4313 
     33 C         -72.7549   24.8252  -77.1307 C.2       8 UNK         0.5041 
     34 O         -71.8001   24.0614  -76.9892 O.2       8 UNK        -0.5577 
     35 CA        -73.1889   25.2211  -78.5557 C.3       7 UNK         0.0284 
     36 CB        -73.9486   24.0781  -79.2483 C.3       7 UNK        -0.1958 
     37 N         -73.9894   26.4512  -78.5925 N.am      7 UNK        -0.4454 
     38 C         -73.4799   27.6795  -78.4089 C.2       7 UNK         0.5089 
     39 O         -72.2816   27.8927  -78.2283 O.2       7 UNK        -0.5125 
     40 CA        -74.4653   28.8612  -78.3452 C.3       6 UNK         0.0408 
     41 CB        -74.6577   29.4769  -79.7391 C.3       6 UNK        -0.1791 
     42 N         -75.7703   28.4993  -77.7863 N.am      6 UNK        -0.4762 
     43 C         -75.9726   28.0624  -76.5349 C.2       6 UNK         0.5007 
     44 O         -75.0703   27.9767  -75.6993 O.2       6 UNK        -0.5032 
     45 CA        -77.3947   27.5883  -76.1658 C.3       5 UNK         0.0783 
     46 C46       -78.5106   28.1724  -77.0814 C.3       11 UNK        -0.0857 
     47 S47       -80.1782   27.7369  -76.4739 S.3       11 UNK        -0.2512 
     48 C48       -80.8040   29.3418  -75.8840 C.3       11 UNK         0.0225 
     49 N         -77.4533   26.1214  -76.0990 N.am      5 UNK        -0.4615 
     50 C         -77.2222   25.2736  -77.1142 C.2       4 UNK         0.5053 
     51 O         -76.7564   25.6111  -78.2030 O.2       4 UNK        -0.5105 
     52 CA        -77.6284   23.8102  -76.8996 C.3       4 UNK         0.0263 
     53 CB        -76.5331   23.0203  -76.1669 C.3       4 UNK        -0.1981 
     54 N         -78.8686   23.7297  -76.1334 N.am      4 UNK        -0.4224 
     55 C         -80.1080   23.7735  -76.6428 C.2       3 UNK         0.4895 
     56 O         -80.3442   23.8164  -77.8512 O.2       3 UNK        -0.5091 
     57 CA        -81.2840   23.7891  -75.6372 C.3       3 UNK         0.0250 
     58 CB        -82.4876   22.9542  -76.1239 C.3       3 UNK        -0.1996 
     59 N         -80.8958   23.4194  -74.2666 N.am      3 UNK        -0.4254 
     60 C         -80.3799   22.2512  -73.8522 C.2       2 UNK         0.5004 
     61 O         -80.3369   21.2382  -74.5515 O.2       2 UNK        -0.5226 
     62 CA        -79.7566   22.2173  -72.4404 C.3       2 UNK         0.0269 
     63 CB        -78.4785   21.3519  -72.4097 C.3       2 UNK        -0.1926 
     64 N         -79.4697   23.5288  -71.8340 N.am      2 UNK        -0.4687 
     65 C         -78.6929   24.5214  -72.2980 C.2       1 UNK         0.5165 
     66 O         -78.1912   24.5343  -73.4257 O.2       1 UNK        -0.5079 
     67 H67       -77.6068   24.6234  -67.0309 H         1 UNK         0.0900 
     68 H68       -76.2592   24.4820  -68.1614 H         1 UNK         0.0900 
     69 H69       -77.2908   23.0861  -67.8406 H         1 UNK         0.0900 
     70 H70       -76.7032   25.4077  -70.1504 H         1 UNK         0.2959 
     71 H71       -79.4180   26.0336  -70.9882 H         1 UNK         0.1079 
     72 H72       -78.2817   27.2110  -72.8786 H         1 UNK         0.0837 
     73 H73       -76.7402   26.6009  -72.3487 H         1 UNK         0.0837 
     74 H74       -79.9223   28.6005  -70.9798 H         1 UNK         0.0685 
     75 H75       -79.1285   30.0336  -70.3771 H         1 UNK         0.0685 
     76 H76       -80.5585   28.5191  -73.3007 H         1 UNK         0.1434 
     77 H77       -79.0817   31.4442  -76.0615 H         1 UNK         0.1329 
     78 H78       -77.6320   31.3788  -72.0238 H         1 UNK         0.1335 
     79 H79       -77.8250   33.6403  -74.1230 H         1 UNK         0.0680 
     80 H80       -77.2003   32.7808  -75.5110 H         1 UNK         0.0680 
     81 H81       -75.8509   30.2454  -74.0865 H         1 UNK         0.1032 
     82 H82       -74.8913   31.0794  -75.2747 H         1 UNK         0.1032 
     83 H83       -73.2057   31.4888  -73.2803 H         1 UNK         0.0461 
     84 H84       -73.8323   28.4227  -70.7935 H         1 UNK         0.3453 
     85 H85       -73.1036   28.2084  -72.3658 H         1 UNK         0.3453 
     86 H86       -73.4582   29.0474  -74.8822 H         1 UNK         0.2984 
     87 H87       -70.8556   29.0192  -76.1145 H         1 UNK         0.0554 
     88 H88       -68.8656   29.1358  -74.6624 H         1 UNK         0.0847 
     89 H89       -69.0332   27.5068  -75.2921 H         1 UNK         0.0847 
     90 H90       -69.4910   27.8618  -73.6267 H         1 UNK         0.0847 
     91 H91       -71.9786   27.1377  -76.2251 H         1 UNK         0.3141 
     92 H92       -72.3883   24.4357  -74.5356 H         1 UNK         0.0743 
     93 H93       -74.9611   26.0066  -73.9673 H         1 UNK         0.0784 
     94 H94       -74.7813   24.2533  -74.0071 H         1 UNK         0.0784 
     95 H95       -73.9978   25.1807  -72.7533 H         1 UNK         0.0784 
     96 H96       -74.1668   26.0330  -76.3125 H         1 UNK         0.3213 
     97 H97       -72.2739   25.3980  -79.1260 H         1 UNK         0.0855 
     98 H98       -73.3495   23.1666  -79.2651 H         1 UNK         0.0814 
     99 H99       -74.1821   24.3293  -80.2830 H         1 UNK         0.0814 
    100 H100      -74.8840   23.8406  -78.7451 H         1 UNK         0.0814 
    101 H101      -74.9969   26.3383  -78.6790 H         1 UNK         0.3105 
    102 H102      -74.0255   29.6208  -77.6952 H         1 UNK         0.0547 
    103 H103      -73.7005   29.7785  -80.1672 H         1 UNK         0.0837 
    104 H104      -75.1171   28.7723  -80.4335 H         1 UNK         0.0837 
    105 H105      -75.2856   30.3670  -79.6974 H         1 UNK         0.0837 
    106 H106      -76.5500   28.4957  -78.4281 H         1 UNK         0.3020 
    107 H107      -77.5691   27.9582  -75.1539 H         1 UNK         0.1245 
    108 H108      -78.4263   27.7898  -78.0998 H         1 UNK         0.0781 
    109 H109      -78.4244   29.2567  -77.1608 H         1 UNK         0.0781 
    110 H110      -81.8162   29.2087  -75.4995 H         1 UNK         0.0836 
    111 H111      -80.8871   30.0278  -76.7286 H         1 UNK         0.0836 
    112 H112      -77.7911   25.7339  -75.2267 H         1 UNK         0.3022 
    113 H113      -77.7750   23.3585  -77.8831 H         1 UNK         0.0747 
    114 H114      -75.5517   23.1755  -76.6146 H         1 UNK         0.0793 
    115 H115      -76.4663   23.3075  -75.1190 H         1 UNK         0.0793 
    116 H116      -76.7386   21.9503  -76.1983 H         1 UNK         0.0793 
    117 H117      -78.7671   23.7479  -75.1234 H         1 UNK         0.3047 
    118 H118      -81.6083   24.8296  -75.5840 H         1 UNK         0.0822 
    119 H119      -82.2190   21.9105  -76.2889 H         1 UNK         0.0807 
    120 H120      -82.8745   23.3402  -77.0677 H         1 UNK         0.0807 
    121 H121      -83.3064   22.9813  -75.4051 H         1 UNK         0.0807 
    122 H122      -80.8859   24.1793  -73.6009 H         1 UNK         0.2946 
    123 H123      -80.4994   21.7381  -71.8002 H         1 UNK         0.1144 
    124 H124      -78.0554   21.3048  -71.4063 H         1 UNK         0.0793 
    125 H125      -77.7112   21.7435  -73.0788 H         1 UNK         0.0793 
    126 H126      -78.6861   20.3262  -72.7172 H         1 UNK         0.0793 
    127 H127      -79.8013   23.6420  -70.8795 H         1 UNK         0.2896 
@<TRIPOS>BOND
     1    1    2 1    
     2    1   67 1    
     3    1   68 1    
     4    1   69 1    
     5    2    3 2    
     6    2    4 am   BACKBONE|DICT|INTERRES
     7    4    5 1    
     8    4   70 1    
     9    5    6 1    
    10    5   65 1    
    11    5   71 1    
    12    6    7 1    
    13    6   72 1    
    14    6   73 1    
    15    7    8 1    
    16    8    9 1    
    17    8   74 1    
    18    8   75 1    
    19    9   10 ar   
    20    9   14 ar   
    21   10   11 ar   
    22   10   76 1    
    23   11   12 ar   
    24   11   48 1    
    25   12   13 ar   
    26   12   77 1    
    27   13   14 ar   
    28   13   15 1    
    29   14   78 1    
    30   15   16 1    
    31   15   79 1    
    32   15   80 1    
    33   16   17 1    
    34   17   18 1    
    35   17   81 1    
    36   17   82 1    
    37   18   19 1    
    38   18   22 1    
    39   18   83 1    
    40   19   20 am   BACKBONE|DICT|INTERRES
    41   19   21 2    
    42   20   84 1    
    43   20   85 1    
    44   22   23 am   BACKBONE|DICT|INTERRES
    45   22   86 1    
    46   23   24 2    
    47   23   25 1    
    48   25   26 1    
    49   25   27 1    
    50   25   87 1    
    51   26   88 1    
    52   26   89 1    
    53   26   90 1    
    54   27   28 am   BACKBONE|DICT|INTERRES
    55   27   91 1    
    56   28   29 2    
    57   28   30 1    
    58   30   31 1    
    59   30   32 1    
    60   30   92 1    
    61   31   93 1    
    62   31   94 1    
    63   31   95 1    
    64   32   33 am   BACKBONE|DICT|INTERRES
    65   32   96 1    
    66   33   34 2    
    67   33   35 1    
    68   35   36 1    
    69   35   37 1    
    70   35   97 1    
    71   36   98 1    
    72   36   99 1    
    73   36  100 1    
    74   37   38 am   BACKBONE|DICT|INTERRES
    75   37  101 1    
    76   38   39 2    
    77   38   40 1    
    78   40   41 1    
    79   40   42 1    
    80   40  102 1    
    81   41  103 1    
    82   41  104 1    
    83   41  105 1    
    84   42   43 am   BACKBONE|DICT|INTERRES
    85   42  106 1    
    86   43   44 2    
    87   43   45 1    
    88   45   46 1    
    89   45   49 1    
    90   45  107 1    
    91   46   47 1    
    92   46  108 1    
    93   46  109 1    
    94   47   48 1    
    95   48  110 1    
    96   48  111 1    
    97   49   50 am   BACKBONE|DICT|INTERRES
    98   49  112 1    
    99   50   51 2    
   100   50   52 1    
   101   52   53 1    
   102   52   54 1    
   103   52  113 1    
   104   53  114 1    
   105   53  115 1    
   106   53  116 1    
   107   54   55 am   BACKBONE|DICT|INTERRES
   108   54  117 1    
   109   55   56 2    
   110   55   57 1    
   111   57   58 1    
   112   57   59 1    
   113   57  118 1    
   114   58  119 1    
   115   58  120 1    
   116   58  121 1    
   117   59   60 am   BACKBONE|DICT|INTERRES
   118   59  122 1    
   119   60   61 2    
   120   60   62 1    
   121   62   63 1    
   122   62   64 1    
   123   62  123 1    
   124   63  124 1    
   125   63  125 1    
   126   63  126 1    
   127   64   65 am   BACKBONE|DICT|INTERRES
   128   64  127 1    
   129   65   66 2    
@<TRIPOS>SUBSTRUCTURE
     1 UNK         1 GROUP             0       ****    0 ROOT    
