@<TRIPOS>MOLECULE
3R135
127   129    1
SMALL
USER_CHARGES


@<TRIPOS>ATOM
      1 CA        -78.6893   20.5964  -74.1618 C.3       0 UNK        -0.1998 
      2 C         -79.4080   21.5278  -73.1968 C.2       0 UNK         0.4909 
      3 O         -80.1157   21.0615  -72.3029 O.2       0 UNK        -0.5240 
      4 N         -79.2248   22.8392  -73.3734 N.am      1 UNK        -0.4739 
      5 CA        -79.9025   23.9045  -72.6348 C.3       1 UNK         0.0864 
      6 C6        -78.9448   25.1124  -72.4449 C.3       11 UNK        -0.0881 
      7 S7        -79.2505   26.0174  -70.8902 S.3       11 UNK        -0.2682 
      8 C8        -79.6501   27.6962  -71.4846 C.3       11 UNK         0.0289 
      9 C9        -78.5167   28.3470  -72.2701 C.ar      11 UNK        -0.0687 
     10 C10       -78.7784   28.9274  -73.5155 C.ar      11 UNK        -0.0823 
     11 C11       -77.7574   29.5454  -74.2425 C.ar      11 UNK        -0.0830 
     12 C12       -76.4616   29.5703  -73.7209 C.ar      11 UNK        -0.1021 
     13 C13       -76.1878   29.0031  -72.4734 C.ar      11 UNK        -0.0753 
     14 C14       -77.2188   28.3986  -71.7491 C.ar      11 UNK        -0.0933 
     15 C15       -74.7740   29.0464  -71.9203 C.3       11 UNK         0.0166 
     16 S16       -74.3340   30.7214  -71.3684 S.3       11 UNK        -0.2615 
     17 C17       -72.5129   30.6495  -71.4562 C.3       11 UNK        -0.0865 
     18 CA        -71.9813   31.2519  -72.7825 C.3       10 UNK         0.0862 
     19 C         -70.4473   31.4612  -72.7315 C.2       10 UNK         0.5551 
     20 N         -69.9855   32.7035  -72.7707 N.am      10 UNK        -0.7319 
     21 O         -69.6765   30.5114  -72.6143 O.2       10 UNK        -0.5018 
     22 N         -72.3275   30.4051  -73.9291 N.am      10 UNK        -0.4509 
     23 C         -72.6293   30.8576  -75.1530 C.2       10 UNK         0.4899 
     24 O         -72.7266   32.0536  -75.4330 O.2       10 UNK        -0.4839 
     25 CA        -72.8766   29.7939  -76.2463 C.3       9 UNK         0.0222 
     26 CB        -72.7612   30.3563  -77.6784 C.3       9 UNK        -0.1966 
     27 N         -72.0483   28.5933  -76.0859 N.am      9 UNK        -0.4218 
     28 C         -70.7081   28.5383  -76.0243 C.2       9 UNK         0.5020 
     29 O         -69.9748   29.4980  -76.2699 O.2       9 UNK        -0.5274 
     30 CA        -70.0726   27.1953  -75.6023 C.3       8 UNK         0.0270 
     31 CB        -68.7913   27.4057  -74.7681 C.3       8 UNK        -0.1976 
     32 N         -70.9736   26.2687  -74.8999 N.am      8 UNK        -0.4313 
     33 C         -71.6830   26.4752  -73.7802 C.2       8 UNK         0.5041 
     34 O         -71.7529   27.5612  -73.2022 O.2       8 UNK        -0.5577 
     35 CA        -72.4842   25.2645  -73.2570 C.3       7 UNK         0.0284 
     36 CB        -73.2237   25.5581  -71.9390 C.3       7 UNK        -0.1958 
     37 N         -73.4549   24.7823  -74.2428 N.am      7 UNK        -0.4454 
     38 C         -73.1683   24.0829  -75.3484 C.2       7 UNK         0.5089 
     39 O         -72.0293   23.7178  -75.6441 O.2       7 UNK        -0.5125 
     40 CA        -74.3316   23.7612  -76.3007 C.3       6 UNK         0.0408 
     41 CB        -74.8213   22.3211  -76.0799 C.3       6 UNK        -0.1791 
     42 N         -75.4760   24.6703  -76.1927 N.am      6 UNK        -0.4762 
     43 C         -75.4976   25.9781  -76.4839 C.2       6 UNK         0.5007 
     44 O         -74.4855   26.6120  -76.7905 O.2       6 UNK        -0.5032 
     45 CA        -76.8791   26.6841  -76.4327 C.3       5 UNK         0.0783 
     46 C46       -76.8174   28.1187  -77.0208 C.3       11 UNK        -0.0857 
     47 S47       -78.4103   29.0007  -76.8892 S.3       11 UNK        -0.2512 
     48 C48       -78.0612   30.2115  -75.5769 C.3       11 UNK         0.0225 
     49 N         -77.9541   25.9050  -77.0696 N.am      5 UNK        -0.4615 
     50 C         -78.5143   24.7785  -76.6180 C.2       4 UNK         0.5053 
     51 O         -78.1509   24.1995  -75.5925 O.2       4 UNK        -0.5105 
     52 CA        -79.6714   24.2149  -77.4514 C.3       4 UNK         0.0263 
     53 CB        -79.8431   22.6965  -77.2600 C.3       4 UNK        -0.1981 
     54 N         -80.9116   24.8956  -77.0820 N.am      4 UNK        -0.4224 
     55 C         -81.3796   25.9997  -77.6828 C.2       3 UNK         0.4895 
     56 O         -80.8034   26.5502  -78.6223 O.2       3 UNK        -0.5091 
     57 CA        -82.7189   26.5858  -77.1935 C.3       3 UNK         0.0250 
     58 CB        -83.8433   26.2453  -78.1860 C.3       3 UNK        -0.1996 
     59 N         -83.1104   26.1229  -75.8603 N.am      3 UNK        -0.4254 
     60 C         -82.6588   26.6452  -74.7129 C.2       2 UNK         0.5004 
     61 O         -81.9028   27.6147  -74.6539 O.2       2 UNK        -0.5226 
     62 CA        -83.0849   25.9563  -73.4000 C.3       2 UNK         0.0269 
     63 CB        -84.3035   25.0140  -73.5375 C.3       2 UNK        -0.1926 
     64 N         -81.9446   25.2575  -72.7929 N.am      2 UNK        -0.4687 
     65 C         -81.1966   24.3086  -73.3738 C.2       1 UNK         0.5165 
     66 O         -81.4818   23.7983  -74.4616 O.2       1 UNK        -0.5079 
     67 H67       -78.0454   19.9096  -73.6133 H         1 UNK         0.0900 
     68 H68       -78.0713   21.1467  -74.8719 H         1 UNK         0.0900 
     69 H69       -79.4137   20.0102  -74.7265 H         1 UNK         0.0900 
     70 H70       -78.7022   23.1690  -74.1827 H         1 UNK         0.2959 
     71 H71       -80.1914   23.5175  -71.6549 H         1 UNK         0.1079 
     72 H72       -77.9110   24.7668  -72.3877 H         1 UNK         0.0837 
     73 H73       -78.9705   25.7861  -73.3044 H         1 UNK         0.0837 
     74 H74       -80.5591   27.6525  -72.0858 H         1 UNK         0.0685 
     75 H75       -79.8819   28.3249  -70.6241 H         1 UNK         0.0685 
     76 H76       -79.7802   28.9067  -73.9225 H         1 UNK         0.1434 
     77 H77       -75.6649   30.0496  -74.2729 H         1 UNK         0.1329 
     78 H78       -77.0127   27.9631  -70.7809 H         1 UNK         0.1335 
     79 H79       -74.6568   28.3566  -71.0835 H         1 UNK         0.0680 
     80 H80       -74.0878   28.7136  -72.6981 H         1 UNK         0.0680 
     81 H81       -72.1658   29.6225  -71.3232 H         1 UNK         0.1032 
     82 H82       -72.1265   31.2104  -70.6030 H         1 UNK         0.1032 
     83 H83       -72.4537   32.2291  -72.9059 H         1 UNK         0.0461 
     84 H84       -68.9906   32.8587  -72.7234 H         1 UNK         0.3453 
     85 H85       -70.6118   33.4884  -72.8634 H         1 UNK         0.3453 
     86 H86       -72.1842   29.4082  -73.7881 H         1 UNK         0.2984 
     87 H87       -73.9050   29.4630  -76.1070 H         1 UNK         0.0554 
     88 H88       -72.9687   29.5877  -78.4229 H         1 UNK         0.0847 
     89 H89       -71.7669   30.7575  -77.8767 H         1 UNK         0.0847 
     90 H90       -73.4761   31.1637  -77.8413 H         1 UNK         0.0847 
     91 H91       -72.5604   27.7378  -75.9110 H         1 UNK         0.3141 
     92 H92       -69.7879   26.6955  -76.5292 H         1 UNK         0.0743 
     93 H93       -68.9994   27.9548  -73.8485 H         1 UNK         0.0784 
     94 H94       -68.3329   26.4552  -74.4955 H         1 UNK         0.0784 
     95 H95       -68.0450   27.9743  -75.3243 H         1 UNK         0.0784 
     96 H96       -71.0619   25.3432  -75.3149 H         1 UNK         0.3213 
     97 H97       -71.7617   24.4695  -73.0589 H         1 UNK         0.0855 
     98 H98       -74.0288   26.2772  -72.0825 H         1 UNK         0.0814 
     99 H99       -72.5462   25.9659  -71.1874 H         1 UNK         0.0814 
    100 H100      -73.6597   24.6507  -71.5208 H         1 UNK         0.0814 
    101 H101      -74.4163   25.0559  -74.1041 H         1 UNK         0.3105 
    102 H102      -73.9462   23.8395  -77.3192 H         1 UNK         0.0547 
    103 H103      -74.0013   21.6086  -76.1816 H         1 UNK         0.0837 
    104 H104      -75.2481   22.1879  -75.0849 H         1 UNK         0.0837 
    105 H105      -75.5815   22.0433  -76.8102 H         1 UNK         0.0837 
    106 H106      -76.3660   24.2541  -75.9256 H         1 UNK         0.3020 
    107 H107      -77.1278   26.7751  -75.3725 H         1 UNK         0.1245 
    108 H108      -76.5358   28.0863  -78.0750 H         1 UNK         0.0781 
    109 H109      -76.0479   28.7087  -76.5235 H         1 UNK         0.0781 
    110 H110      -78.9280   30.8639  -75.4618 H         1 UNK         0.0836 
    111 H111      -77.2373   30.8550  -75.8898 H         1 UNK         0.0836 
    112 H112      -78.3509   26.3236  -77.9001 H         1 UNK         0.3022 
    113 H113      -79.4471   24.3855  -78.5066 H         1 UNK         0.0747 
    114 H114      -80.6261   22.3043  -77.9088 H         1 UNK         0.0793 
    115 H115      -78.9221   22.1661  -77.5052 H         1 UNK         0.0793 
    116 H116      -80.1036   22.4380  -76.2341 H         1 UNK         0.0793 
    117 H117      -81.3809   24.5380  -76.2538 H         1 UNK         0.3047 
    118 H118      -82.6060   27.6722  -77.1707 H         1 UNK         0.0822 
    119 H119      -84.7850   26.7104  -77.8939 H         1 UNK         0.0807 
    120 H120      -84.0069   25.1693  -78.2584 H         1 UNK         0.0807 
    121 H121      -83.6032   26.6062  -79.1872 H         1 UNK         0.0807 
    122 H122      -83.7052   25.3079  -75.8149 H         1 UNK         0.2946 
    123 H123      -83.3656   26.7593  -72.7162 H         1 UNK         0.1144 
    124 H124      -85.1602   25.5395  -73.9618 H         1 UNK         0.0793 
    125 H125      -84.6137   24.6385  -72.5623 H         1 UNK         0.0793 
    126 H126      -84.0994   24.1484  -74.1680 H         1 UNK         0.0793 
    127 H127      -81.6197   25.6335  -71.9121 H         1 UNK         0.2896 
@<TRIPOS>BOND
     1    1    2 1    
     2    1   67 1    
     3    1   68 1    
     4    1   69 1    
     5    2    3 2    
     6    2    4 am   BACKBONE|DICT|INTERRES
     7    4    5 1    
     8    4   70 1    
     9    5    6 1    
    10    5   65 1    
    11    5   71 1    
    12    6    7 1    
    13    6   72 1    
    14    6   73 1    
    15    7    8 1    
    16    8    9 1    
    17    8   74 1    
    18    8   75 1    
    19    9   10 ar   
    20    9   14 ar   
    21   10   11 ar   
    22   10   76 1    
    23   11   12 ar   
    24   11   48 1    
    25   12   13 ar   
    26   12   77 1    
    27   13   14 ar   
    28   13   15 1    
    29   14   78 1    
    30   15   16 1    
    31   15   79 1    
    32   15   80 1    
    33   16   17 1    
    34   17   18 1    
    35   17   81 1    
    36   17   82 1    
    37   18   19 1    
    38   18   22 1    
    39   18   83 1    
    40   19   20 am   BACKBONE|DICT|INTERRES
    41   19   21 2    
    42   20   84 1    
    43   20   85 1    
    44   22   23 am   BACKBONE|DICT|INTERRES
    45   22   86 1    
    46   23   24 2    
    47   23   25 1    
    48   25   26 1    
    49   25   27 1    
    50   25   87 1    
    51   26   88 1    
    52   26   89 1    
    53   26   90 1    
    54   27   28 am   BACKBONE|DICT|INTERRES
    55   27   91 1    
    56   28   29 2    
    57   28   30 1    
    58   30   31 1    
    59   30   32 1    
    60   30   92 1    
    61   31   93 1    
    62   31   94 1    
    63   31   95 1    
    64   32   33 am   BACKBONE|DICT|INTERRES
    65   32   96 1    
    66   33   34 2    
    67   33   35 1    
    68   35   36 1    
    69   35   37 1    
    70   35   97 1    
    71   36   98 1    
    72   36   99 1    
    73   36  100 1    
    74   37   38 am   BACKBONE|DICT|INTERRES
    75   37  101 1    
    76   38   39 2    
    77   38   40 1    
    78   40   41 1    
    79   40   42 1    
    80   40  102 1    
    81   41  103 1    
    82   41  104 1    
    83   41  105 1    
    84   42   43 am   BACKBONE|DICT|INTERRES
    85   42  106 1    
    86   43   44 2    
    87   43   45 1    
    88   45   46 1    
    89   45   49 1    
    90   45  107 1    
    91   46   47 1    
    92   46  108 1    
    93   46  109 1    
    94   47   48 1    
    95   48  110 1    
    96   48  111 1    
    97   49   50 am   BACKBONE|DICT|INTERRES
    98   49  112 1    
    99   50   51 2    
   100   50   52 1    
   101   52   53 1    
   102   52   54 1    
   103   52  113 1    
   104   53  114 1    
   105   53  115 1    
   106   53  116 1    
   107   54   55 am   BACKBONE|DICT|INTERRES
   108   54  117 1    
   109   55   56 2    
   110   55   57 1    
   111   57   58 1    
   112   57   59 1    
   113   57  118 1    
   114   58  119 1    
   115   58  120 1    
   116   58  121 1    
   117   59   60 am   BACKBONE|DICT|INTERRES
   118   59  122 1    
   119   60   61 2    
   120   60   62 1    
   121   62   63 1    
   122   62   64 1    
   123   62  123 1    
   124   63  124 1    
   125   63  125 1    
   126   63  126 1    
   127   64   65 am   BACKBONE|DICT|INTERRES
   128   64  127 1    
   129   65   66 2    
@<TRIPOS>SUBSTRUCTURE
     1 UNK         1 GROUP             0       ****    0 ROOT    
