@<TRIPOS>MOLECULE
3R135
127   129    1
SMALL
USER_CHARGES


@<TRIPOS>ATOM
      1 CA        -78.1213   20.9782  -70.6413 C.3       0 UNK        -0.1998 
      2 C         -78.8213   21.9686  -71.5590 C.2       0 UNK         0.4909 
      3 O         -79.9929   21.7796  -71.8887 O.2       0 UNK        -0.5240 
      4 N         -78.1107   23.0188  -71.9879 N.am      1 UNK        -0.4739 
      5 CA        -78.6006   24.1071  -72.8486 C.3       1 UNK         0.0864 
      6 C6        -77.7759   25.4079  -72.6394 C.3       11 UNK        -0.0881 
      7 S7        -77.7259   25.9343  -70.8898 S.3       11 UNK        -0.2682 
      8 C8        -78.6098   27.5336  -70.9155 C.3       11 UNK         0.0289 
      9 C9        -77.7815   28.6745  -71.5008 C.ar      11 UNK        -0.0687 
     10 C10       -78.3549   29.5542  -72.4252 C.ar      11 UNK        -0.0823 
     11 C11       -77.5938   30.5785  -72.9994 C.ar      11 UNK        -0.0830 
     12 C12       -76.2545   30.7253  -72.6323 C.ar      11 UNK        -0.1021 
     13 C13       -75.6796   29.8883  -71.6713 C.ar      11 UNK        -0.0753 
     14 C14       -76.4526   28.8698  -71.1069 C.ar      11 UNK        -0.0933 
     15 C15       -74.2124   30.0315  -71.2815 C.3       11 UNK         0.0166 
     16 S16       -73.6679   31.7625  -71.1112 S.3       11 UNK        -0.2615 
     17 C17       -71.8743   31.5920  -71.3949 C.3       11 UNK        -0.0865 
     18 CA        -71.4866   31.8383  -72.8781 C.3       10 UNK         0.0862 
     19 C         -69.9568   32.0407  -73.0134 C.2       10 UNK         0.5551 
     20 N         -69.4952   33.2833  -73.0342 N.am      10 UNK        -0.7319 
     21 O         -69.1828   31.0862  -73.0609 O.2       10 UNK        -0.5018 
     22 N         -71.9093   30.7257  -73.7379 N.am      10 UNK        -0.4509 
     23 C         -72.7565   30.7908  -74.7677 C.2       10 UNK         0.4899 
     24 O         -73.3641   31.8110  -75.0926 O.2       10 UNK        -0.4839 
     25 CA        -72.9673   29.5061  -75.5950 C.3       9 UNK         0.0222 
     26 CB        -71.8337   29.3193  -76.6215 C.3       9 UNK        -0.1966 
     27 N         -73.1961   28.2741  -74.8230 N.am      9 UNK        -0.4218 
     28 C         -72.3696   27.6269  -73.9871 C.2       9 UNK         0.5020 
     29 O         -71.2329   28.0131  -73.7124 O.2       9 UNK        -0.5274 
     30 CA        -72.8816   26.3328  -73.3378 C.3       8 UNK         0.0270 
     31 CB        -73.7257   26.6295  -72.0896 C.3       8 UNK        -0.1976 
     32 N         -73.6705   25.5060  -74.2544 N.am      8 UNK        -0.4313 
     33 C         -73.4272   24.2097  -74.4916 C.2       8 UNK         0.5041 
     34 O         -72.4547   23.6011  -74.0413 O.2       8 UNK        -0.5577 
     35 CA        -74.4504   23.4280  -75.3350 C.3       7 UNK         0.0284 
     36 CB        -75.2995   22.5372  -74.4160 C.3       7 UNK        -0.1958 
     37 N         -75.3199   24.2776  -76.1580 N.am      7 UNK        -0.4454 
     38 C         -74.8931   24.8974  -77.2671 C.2       7 UNK         0.5089 
     39 O         -73.7466   24.7917  -77.7044 O.2       7 UNK        -0.5125 
     40 CA        -75.8889   25.7886  -78.0299 C.3       6 UNK         0.0408 
     41 CB        -76.5647   24.9793  -79.1454 C.3       6 UNK        -0.1791 
     42 N         -76.9235   26.4654  -77.2391 N.am      6 UNK        -0.4762 
     43 C         -76.7307   27.2324  -76.1535 C.2       6 UNK         0.5007 
     44 O         -75.6669   27.2854  -75.5342 O.2       6 UNK        -0.5032 
     45 CA        -77.9004   28.1160  -75.6852 C.3       5 UNK         0.0783 
     46 C46       -77.6099   29.6042  -76.0162 C.3       11 UNK        -0.0857 
     47 S47       -78.9481   30.7133  -75.4504 S.3       11 UNK        -0.2512 
     48 C48       -78.2028   31.5429  -74.0107 C.3       11 UNK         0.0225 
     49 N         -79.1717   27.6809  -76.2664 N.am      5 UNK        -0.4615 
     50 C         -80.2670   27.3426  -75.5826 C.2       4 UNK         0.5053 
     51 O         -80.3244   27.2546  -74.3564 O.2       4 UNK        -0.5105 
     52 CA        -81.5299   27.0802  -76.4175 C.3       4 UNK         0.0263 
     53 CB        -81.9324   28.3089  -77.2597 C.3       4 UNK        -0.1981 
     54 N         -81.4375   25.8688  -77.2361 N.am      4 UNK        -0.4224 
     55 C         -80.6091   25.5886  -78.2513 C.2       3 UNK         0.4895 
     56 O         -79.7519   26.3602  -78.6898 O.2       3 UNK        -0.5091 
     57 CA        -80.7348   24.1652  -78.8233 C.3       3 UNK         0.0250 
     58 CB        -80.1733   24.0455  -80.2516 C.3       3 UNK        -0.1996 
     59 N         -80.0595   23.2042  -77.9494 N.am      3 UNK        -0.4254 
     60 C         -80.5051   22.8171  -76.7460 C.2       2 UNK         0.5004 
     61 O         -81.5995   23.1531  -76.2866 O.2       2 UNK        -0.5226 
     62 CA        -79.5955   21.9126  -75.8985 C.3       2 UNK         0.0269 
     63 CB        -78.2948   21.4634  -76.6034 C.3       2 UNK        -0.1926 
     64 N         -79.3201   22.5287  -74.5948 N.am      2 UNK        -0.4687 
     65 C         -78.6674   23.6723  -74.3354 C.2       1 UNK         0.5165 
     66 O         -78.0979   24.3412  -75.2005 O.2       1 UNK        -0.5079 
     67 H67       -77.0907   21.2687  -70.4382 H         1 UNK         0.0900 
     68 H68       -78.6486   20.9120  -69.6900 H         1 UNK         0.0900 
     69 H69       -78.1116   19.9880  -71.0958 H         1 UNK         0.0900 
     70 H70       -77.1566   23.1215  -71.6741 H         1 UNK         0.2959 
     71 H71       -79.6293   24.3322  -72.5576 H         1 UNK         0.1079 
     72 H72       -78.1932   26.2159  -73.2374 H         1 UNK         0.0837 
     73 H73       -76.7482   25.2796  -72.9834 H         1 UNK         0.0837 
     74 H74       -79.5465   27.4100  -71.4620 H         1 UNK         0.0685 
     75 H75       -78.8812   27.7966  -69.8925 H         1 UNK         0.0685 
     76 H76       -79.3880   29.4281  -72.7209 H         1 UNK         0.1434 
     77 H77       -75.6566   31.5014  -73.0909 H         1 UNK         0.1329 
     78 H78       -76.0103   28.2056  -70.3772 H         1 UNK         0.1335 
     79 H79       -73.6186   29.5392  -72.0482 H         1 UNK         0.0680 
     80 H80       -74.0071   29.5115  -70.3446 H         1 UNK         0.0680 
     81 H81       -71.3843   32.3219  -70.7472 H         1 UNK         0.1032 
     82 H82       -71.5294   30.6133  -71.0552 H         1 UNK         0.1032 
     83 H83       -71.9695   32.7603  -73.2086 H         1 UNK         0.0461 
     84 H84       -70.1204   34.0730  -72.9838 H         1 UNK         0.3453 
     85 H85       -68.5013   33.4359  -73.1069 H         1 UNK         0.3453 
     86 H86       -71.4204   29.8444  -73.5918 H         1 UNK         0.2984 
     87 H87       -73.8890   29.6552  -76.1599 H         1 UNK         0.0554 
     88 H88       -71.7345   30.2007  -77.2565 H         1 UNK         0.0847 
     89 H89       -72.0285   28.4691  -77.2753 H         1 UNK         0.0847 
     90 H90       -70.8687   29.1578  -76.1401 H         1 UNK         0.0847 
     91 H91       -74.1261   27.8813  -74.9653 H         1 UNK         0.3141 
     92 H92       -71.9933   25.7895  -73.0085 H         1 UNK         0.0743 
     93 H93       -74.6438   27.1563  -72.3484 H         1 UNK         0.0784 
     94 H94       -74.0071   25.7102  -71.5758 H         1 UNK         0.0784 
     95 H95       -73.1723   27.2400  -71.3756 H         1 UNK         0.0784 
     96 H96       -74.4671   25.9429  -74.7084 H         1 UNK         0.3213 
     97 H97       -73.8862   22.7730  -76.0029 H         1 UNK         0.0855 
     98 H98       -75.8386   23.1264  -73.6770 H         1 UNK         0.0814 
     99 H99       -74.6714   21.8331  -73.8687 H         1 UNK         0.0814 
    100 H100      -76.0201   21.9496  -74.9794 H         1 UNK         0.0814 
    101 H101      -76.2850   24.4058  -75.8599 H         1 UNK         0.3105 
    102 H102      -75.3007   26.5784  -78.5010 H         1 UNK         0.0547 
    103 H103      -75.8258   24.4851  -79.7779 H         1 UNK         0.0837 
    104 H104      -77.2148   24.2060  -78.7362 H         1 UNK         0.0837 
    105 H105      -77.1635   25.6207  -79.7920 H         1 UNK         0.0837 
    106 H106      -77.8568   26.4296  -77.6298 H         1 UNK         0.3020 
    107 H107      -77.9338   28.0103  -74.6017 H         1 UNK         0.1245 
    108 H108      -77.4996   29.7409  -77.0936 H         1 UNK         0.0781 
    109 H109      -76.6636   29.9243  -75.5751 H         1 UNK         0.0781 
    110 H110      -78.9687   32.1389  -73.5129 H         1 UNK         0.0836 
    111 H111      -77.4542   32.2496  -74.3723 H         1 UNK         0.0836 
    112 H112      -79.2381   27.6668  -77.2781 H         1 UNK         0.3022 
    113 H113      -82.3384   26.8973  -75.7077 H         1 UNK         0.0747 
    114 H114      -82.8965   28.1546  -77.7441 H         1 UNK         0.0793 
    115 H115      -82.0237   29.1960  -76.6313 H         1 UNK         0.0793 
    116 H116      -81.2038   28.5390  -78.0373 H         1 UNK         0.0793 
    117 H117      -81.9884   25.0869  -76.8952 H         1 UNK         0.3047 
    118 H118      -81.7971   23.9140  -78.8677 H         1 UNK         0.0822 
    119 H119      -80.3484   23.0512  -80.6630 H         1 UNK         0.0807 
    120 H120      -79.1026   24.2388  -80.2920 H         1 UNK         0.0807 
    121 H121      -80.6564   24.7604  -80.9190 H         1 UNK         0.0807 
    122 H122      -79.1448   22.8938  -78.2403 H         1 UNK         0.2946 
    123 H123      -80.1817   21.0147  -75.6958 H         1 UNK         0.1144 
    124 H124      -77.7473   20.7538  -75.9838 H         1 UNK         0.0793 
    125 H125      -77.6280   22.2968  -76.8260 H         1 UNK         0.0793 
    126 H126      -78.5107   20.9504  -77.5416 H         1 UNK         0.0793 
    127 H127      -79.7475   22.0704  -73.7942 H         1 UNK         0.2896 
@<TRIPOS>BOND
     1    1    2 1    
     2    1   67 1    
     3    1   68 1    
     4    1   69 1    
     5    2    3 2    
     6    2    4 am   BACKBONE|DICT|INTERRES
     7    4    5 1    
     8    4   70 1    
     9    5    6 1    
    10    5   65 1    
    11    5   71 1    
    12    6    7 1    
    13    6   72 1    
    14    6   73 1    
    15    7    8 1    
    16    8    9 1    
    17    8   74 1    
    18    8   75 1    
    19    9   10 ar   
    20    9   14 ar   
    21   10   11 ar   
    22   10   76 1    
    23   11   12 ar   
    24   11   48 1    
    25   12   13 ar   
    26   12   77 1    
    27   13   14 ar   
    28   13   15 1    
    29   14   78 1    
    30   15   16 1    
    31   15   79 1    
    32   15   80 1    
    33   16   17 1    
    34   17   18 1    
    35   17   81 1    
    36   17   82 1    
    37   18   19 1    
    38   18   22 1    
    39   18   83 1    
    40   19   20 am   BACKBONE|DICT|INTERRES
    41   19   21 2    
    42   20   84 1    
    43   20   85 1    
    44   22   23 am   BACKBONE|DICT|INTERRES
    45   22   86 1    
    46   23   24 2    
    47   23   25 1    
    48   25   26 1    
    49   25   27 1    
    50   25   87 1    
    51   26   88 1    
    52   26   89 1    
    53   26   90 1    
    54   27   28 am   BACKBONE|DICT|INTERRES
    55   27   91 1    
    56   28   29 2    
    57   28   30 1    
    58   30   31 1    
    59   30   32 1    
    60   30   92 1    
    61   31   93 1    
    62   31   94 1    
    63   31   95 1    
    64   32   33 am   BACKBONE|DICT|INTERRES
    65   32   96 1    
    66   33   34 2    
    67   33   35 1    
    68   35   36 1    
    69   35   37 1    
    70   35   97 1    
    71   36   98 1    
    72   36   99 1    
    73   36  100 1    
    74   37   38 am   BACKBONE|DICT|INTERRES
    75   37  101 1    
    76   38   39 2    
    77   38   40 1    
    78   40   41 1    
    79   40   42 1    
    80   40  102 1    
    81   41  103 1    
    82   41  104 1    
    83   41  105 1    
    84   42   43 am   BACKBONE|DICT|INTERRES
    85   42  106 1    
    86   43   44 2    
    87   43   45 1    
    88   45   46 1    
    89   45   49 1    
    90   45  107 1    
    91   46   47 1    
    92   46  108 1    
    93   46  109 1    
    94   47   48 1    
    95   48  110 1    
    96   48  111 1    
    97   49   50 am   BACKBONE|DICT|INTERRES
    98   49  112 1    
    99   50   51 2    
   100   50   52 1    
   101   52   53 1    
   102   52   54 1    
   103   52  113 1    
   104   53  114 1    
   105   53  115 1    
   106   53  116 1    
   107   54   55 am   BACKBONE|DICT|INTERRES
   108   54  117 1    
   109   55   56 2    
   110   55   57 1    
   111   57   58 1    
   112   57   59 1    
   113   57  118 1    
   114   58  119 1    
   115   58  120 1    
   116   58  121 1    
   117   59   60 am   BACKBONE|DICT|INTERRES
   118   59  122 1    
   119   60   61 2    
   120   60   62 1    
   121   62   63 1    
   122   62   64 1    
   123   62  123 1    
   124   63  124 1    
   125   63  125 1    
   126   63  126 1    
   127   64   65 am   BACKBONE|DICT|INTERRES
   128   64  127 1    
   129   65   66 2    
@<TRIPOS>SUBSTRUCTURE
     1 UNK         1 GROUP             0       ****    0 ROOT    
