@<TRIPOS>MOLECULE
3R135
127   129    1
SMALL
USER_CHARGES


@<TRIPOS>ATOM
      1 CA        -78.7271   29.0069  -74.9236 C.3       0 UNK        -0.1998 
      2 C         -80.0367   29.7799  -75.0400 C.2       0 UNK         0.4909 
      3 O         -80.1035   30.7426  -75.8021 O.2       0 UNK        -0.5240 
      4 N         -81.0974   29.4155  -74.3074 N.am      1 UNK        -0.4739 
      5 CA        -81.2006   28.2562  -73.4117 C.3       1 UNK         0.0864 
      6 C6        -82.3448   28.4255  -72.3792 C.3       11 UNK        -0.0881 
      7 S7        -82.2411   29.9796  -71.4281 S.3       11 UNK        -0.2682 
      8 C8        -81.3693   29.4468  -69.9217 C.3       11 UNK         0.0289 
      9 C9        -79.8970   29.1545  -70.1774 C.ar      11 UNK        -0.0687 
     10 C10       -79.3940   27.8578  -70.0199 C.ar      11 UNK        -0.0823 
     11 C11       -78.0327   27.6041  -70.2096 C.ar      11 UNK        -0.0830 
     12 C12       -77.1762   28.6582  -70.5268 C.ar      11 UNK        -0.1021 
     13 C13       -77.6701   29.9433  -70.7552 C.ar      11 UNK        -0.0753 
     14 C14       -79.0333   30.1881  -70.5608 C.ar      11 UNK        -0.0933 
     15 C15       -76.7364   31.0582  -71.2168 C.3       11 UNK         0.0166 
     16 S16       -75.9269   30.6733  -72.8124 S.3       11 UNK        -0.2615 
     17 C17       -74.4785   29.6920  -72.2817 C.3       11 UNK        -0.0865 
     18 CA        -73.1721   30.1136  -72.9961 C.3       10 UNK         0.0862 
     19 C         -71.9345   29.5384  -72.2561 C.2       10 UNK         0.5551 
     20 N         -71.1521   30.3821  -71.5976 N.am      10 UNK        -0.7319 
     21 O         -71.7122   28.3300  -72.2345 O.2       10 UNK        -0.5018 
     22 N         -73.1743   29.6916  -74.4015 N.am      10 UNK        -0.4509 
     23 C         -72.3361   30.1663  -75.3307 C.2       10 UNK         0.4899 
     24 O         -71.5752   31.1187  -75.1480 O.2       10 UNK        -0.4839 
     25 CA        -72.3491   29.4319  -76.6829 C.3       9 UNK         0.0222 
     26 CB        -71.2906   29.9552  -77.6767 C.3       9 UNK        -0.1966 
     27 N         -72.2409   27.9793  -76.5131 N.am      9 UNK        -0.4218 
     28 C         -71.2385   27.2818  -75.9543 C.2       9 UNK         0.5020 
     29 O         -70.1870   27.7832  -75.5539 O.2       9 UNK        -0.5274 
     30 CA        -71.4349   25.7588  -75.8076 C.3       8 UNK         0.0270 
     31 CB        -71.7333   25.3985  -74.3429 C.3       8 UNK        -0.1976 
     32 N         -72.4984   25.2173  -76.6594 N.am      8 UNK        -0.4313 
     33 C         -72.4235   25.1041  -77.9931 C.2       8 UNK         0.5041 
     34 O         -71.4072   25.3462  -78.6453 O.2       8 UNK        -0.5577 
     35 CA        -73.7113   24.6947  -78.7281 C.3       7 UNK         0.0284 
     36 CB        -73.8600   23.1653  -78.7511 C.3       7 UNK        -0.1958 
     37 N         -74.9158   25.3078  -78.1557 N.am      7 UNK        -0.4454 
     38 C         -75.1647   26.6263  -78.1373 C.2       7 UNK         0.5089 
     39 O         -74.4252   27.4681  -78.6445 O.2       7 UNK        -0.5125 
     40 CA        -76.4185   27.0972  -77.3836 C.3       6 UNK         0.0408 
     41 CB        -77.6773   26.9287  -78.2480 C.3       6 UNK        -0.1791 
     42 N         -76.5980   26.4011  -76.1109 N.am      6 UNK        -0.4762 
     43 C         -75.7896   26.5090  -75.0460 C.2       6 UNK         0.5007 
     44 O         -74.8176   27.2642  -74.9921 O.2       6 UNK        -0.5032 
     45 CA        -76.1204   25.5919  -73.8507 C.3       5 UNK         0.0783 
     46 C46       -77.2290   26.2363  -72.9844 C.3       11 UNK        -0.0857 
     47 S47       -77.8193   25.1988  -71.5970 S.3       11 UNK        -0.2512 
     48 C48       -77.4698   26.1935  -70.1070 C.3       11 UNK         0.0225 
     49 N         -76.4765   24.2447  -74.3040 N.am      5 UNK        -0.4615 
     50 C         -75.6427   23.3920  -74.9128 C.2       4 UNK         0.5053 
     51 O         -74.4599   23.6391  -75.1455 O.2       4 UNK        -0.5105 
     52 CA        -76.2446   22.0535  -75.3728 C.3       4 UNK         0.0263 
     53 CB        -76.2868   21.0521  -74.2079 C.3       4 UNK        -0.1981 
     54 N         -77.5876   22.2056  -75.9403 N.am      4 UNK        -0.4224 
     55 C         -77.8550   22.8575  -77.0814 C.2       3 UNK         0.4895 
     56 O         -76.9922   23.3535  -77.8042 O.2       3 UNK        -0.5091 
     57 CA        -79.3379   23.0348  -77.4530 C.3       3 UNK         0.0250 
     58 CB        -79.8635   21.7922  -78.1890 C.3       3 UNK        -0.1996 
     59 N         -80.2051   23.3362  -76.3069 N.am      3 UNK        -0.4254 
     60 C         -80.0481   24.3869  -75.4895 C.2       2 UNK         0.5004 
     61 O         -79.1291   25.2011  -75.5991 O.2       2 UNK        -0.5226 
     62 CA        -81.0545   24.5146  -74.3322 C.3       2 UNK         0.0269 
     63 CB        -80.8125   23.4189  -73.2795 C.3       2 UNK        -0.1926 
     64 N         -80.9747   25.8254  -73.6785 N.am      2 UNK        -0.4687 
     65 C         -81.4220   26.9641  -74.2245 C.2       1 UNK         0.5165 
     66 O         -82.0236   27.0122  -75.3012 O.2       1 UNK        -0.5079 
     67 H67       -78.8536   27.9835  -75.2728 H         1 UNK         0.0900 
     68 H68       -78.3683   28.9967  -73.8949 H         1 UNK         0.0900 
     69 H69       -77.9520   29.4705  -75.5337 H         1 UNK         0.0900 
     70 H70       -81.9516   29.9438  -74.4086 H         1 UNK         0.2959 
     71 H71       -80.2643   28.1571  -72.8604 H         1 UNK         0.1079 
     72 H72       -83.3144   28.4188  -72.8817 H         1 UNK         0.0837 
     73 H73       -82.3640   27.5841  -71.6838 H         1 UNK         0.0837 
     74 H74       -81.4439   30.2410  -69.1777 H         1 UNK         0.0685 
     75 H75       -81.8765   28.5810  -69.4931 H         1 UNK         0.0685 
     76 H76       -80.0572   27.0462  -69.7530 H         1 UNK         0.1434 
     77 H77       -76.1245   28.4545  -70.6465 H         1 UNK         0.1329 
     78 H78       -79.4293   31.1834  -70.7100 H         1 UNK         0.1335 
     79 H79       -75.9905   31.2600  -70.4471 H         1 UNK         0.0680 
     80 H80       -77.2963   31.9861  -71.3428 H         1 UNK         0.0680 
     81 H81       -74.6805   28.6336  -72.4561 H         1 UNK         0.1032 
     82 H82       -74.3584   29.8065  -71.2029 H         1 UNK         0.1032 
     83 H83       -73.1120   31.2040  -72.9697 H         1 UNK         0.0461 
     84 H84       -71.3306   31.3744  -71.6086 H         1 UNK         0.3453 
     85 H85       -70.3544   30.0220  -71.0976 H         1 UNK         0.3453 
     86 H86       -73.7437   28.8802  -74.6245 H         1 UNK         0.2984 
     87 H87       -73.3310   29.6148  -77.1217 H         1 UNK         0.0554 
     88 H88       -71.3463   29.4256  -78.6278 H         1 UNK         0.0847 
     89 H89       -70.2774   29.8442  -77.2892 H         1 UNK         0.0847 
     90 H90       -71.4433   31.0146  -77.8859 H         1 UNK         0.0847 
     91 H91       -73.0593   27.4582  -76.8005 H         1 UNK         0.3141 
     92 H92       -70.4957   25.2798  -76.0923 H         1 UNK         0.0743 
     93 H93       -72.6636   25.8513  -73.9987 H         1 UNK         0.0784 
     94 H94       -71.8134   24.3200  -74.2057 H         1 UNK         0.0784 
     95 H95       -70.9394   25.7526  -73.6836 H         1 UNK         0.0784 
     96 H96       -73.3449   24.9055  -76.1903 H         1 UNK         0.3213 
     97 H97       -73.6246   25.0422  -79.7598 H         1 UNK         0.0855 
     98 H98       -73.9825   22.7560  -77.7481 H         1 UNK         0.0814 
     99 H99       -72.9803   22.6940  -79.1912 H         1 UNK         0.0814 
    100 H100      -74.7217   22.8598  -79.3447 H         1 UNK         0.0814 
    101 H101      -75.6169   24.6728  -77.7806 H         1 UNK         0.3105 
    102 H102      -76.2975   28.1604  -77.1655 H         1 UNK         0.0547 
    103 H103      -77.5812   27.4757  -79.1867 H         1 UNK         0.0837 
    104 H104      -77.8606   25.8834  -78.4968 H         1 UNK         0.0837 
    105 H105      -78.5630   27.3095  -77.7394 H         1 UNK         0.0837 
    106 H106      -77.4140   25.7964  -76.0313 H         1 UNK         0.3020 
    107 H107      -75.2158   25.5075  -73.2443 H         1 UNK         0.1245 
    108 H108      -76.8698   27.1947  -72.6189 H         1 UNK         0.0781 
    109 H109      -78.1049   26.4654  -73.5894 H         1 UNK         0.0781 
    110 H110      -77.8969   25.6918  -69.2376 H         1 UNK         0.0836 
    111 H111      -76.3913   26.2179  -69.9427 H         1 UNK         0.0836 
    112 H112      -77.4434   23.9830  -74.1851 H         1 UNK         0.3022 
    113 H113      -75.5941   21.6462  -76.1497 H         1 UNK         0.0747 
    114 H114      -76.6388   20.0744  -74.5377 H         1 UNK         0.0793 
    115 H115      -75.2927   20.9096  -73.7816 H         1 UNK         0.0793 
    116 H116      -76.9405   21.3914  -73.4032 H         1 UNK         0.0793 
    117 H117      -78.3585   21.8260  -75.4108 H         1 UNK         0.3047 
    118 H118      -79.3993   23.8843  -78.1364 H         1 UNK         0.0822 
    119 H119      -80.8786   21.9472  -78.5550 H         1 UNK         0.0807 
    120 H120      -79.8683   20.9109  -77.5464 H         1 UNK         0.0807 
    121 H121      -79.2418   21.5605  -79.0553 H         1 UNK         0.0807 
    122 H122      -80.9788   22.7063  -76.1491 H         1 UNK         0.2946 
    123 H123      -82.0599   24.3943  -74.7426 H         1 UNK         0.1144 
    124 H124      -80.9710   22.4248  -73.6989 H         1 UNK         0.0793 
    125 H125      -81.4961   23.5205  -72.4363 H         1 UNK         0.0793 
    126 H126      -79.7951   23.4463  -72.8898 H         1 UNK         0.0793 
    127 H127      -80.4746   25.8563  -72.8017 H         1 UNK         0.2896 
@<TRIPOS>BOND
     1    1    2 1    
     2    1   67 1    
     3    1   68 1    
     4    1   69 1    
     5    2    3 2    
     6    2    4 am   BACKBONE|DICT|INTERRES
     7    4    5 1    
     8    4   70 1    
     9    5    6 1    
    10    5   65 1    
    11    5   71 1    
    12    6    7 1    
    13    6   72 1    
    14    6   73 1    
    15    7    8 1    
    16    8    9 1    
    17    8   74 1    
    18    8   75 1    
    19    9   10 ar   
    20    9   14 ar   
    21   10   11 ar   
    22   10   76 1    
    23   11   12 ar   
    24   11   48 1    
    25   12   13 ar   
    26   12   77 1    
    27   13   14 ar   
    28   13   15 1    
    29   14   78 1    
    30   15   16 1    
    31   15   79 1    
    32   15   80 1    
    33   16   17 1    
    34   17   18 1    
    35   17   81 1    
    36   17   82 1    
    37   18   19 1    
    38   18   22 1    
    39   18   83 1    
    40   19   20 am   BACKBONE|DICT|INTERRES
    41   19   21 2    
    42   20   84 1    
    43   20   85 1    
    44   22   23 am   BACKBONE|DICT|INTERRES
    45   22   86 1    
    46   23   24 2    
    47   23   25 1    
    48   25   26 1    
    49   25   27 1    
    50   25   87 1    
    51   26   88 1    
    52   26   89 1    
    53   26   90 1    
    54   27   28 am   BACKBONE|DICT|INTERRES
    55   27   91 1    
    56   28   29 2    
    57   28   30 1    
    58   30   31 1    
    59   30   32 1    
    60   30   92 1    
    61   31   93 1    
    62   31   94 1    
    63   31   95 1    
    64   32   33 am   BACKBONE|DICT|INTERRES
    65   32   96 1    
    66   33   34 2    
    67   33   35 1    
    68   35   36 1    
    69   35   37 1    
    70   35   97 1    
    71   36   98 1    
    72   36   99 1    
    73   36  100 1    
    74   37   38 am   BACKBONE|DICT|INTERRES
    75   37  101 1    
    76   38   39 2    
    77   38   40 1    
    78   40   41 1    
    79   40   42 1    
    80   40  102 1    
    81   41  103 1    
    82   41  104 1    
    83   41  105 1    
    84   42   43 am   BACKBONE|DICT|INTERRES
    85   42  106 1    
    86   43   44 2    
    87   43   45 1    
    88   45   46 1    
    89   45   49 1    
    90   45  107 1    
    91   46   47 1    
    92   46  108 1    
    93   46  109 1    
    94   47   48 1    
    95   48  110 1    
    96   48  111 1    
    97   49   50 am   BACKBONE|DICT|INTERRES
    98   49  112 1    
    99   50   51 2    
   100   50   52 1    
   101   52   53 1    
   102   52   54 1    
   103   52  113 1    
   104   53  114 1    
   105   53  115 1    
   106   53  116 1    
   107   54   55 am   BACKBONE|DICT|INTERRES
   108   54  117 1    
   109   55   56 2    
   110   55   57 1    
   111   57   58 1    
   112   57   59 1    
   113   57  118 1    
   114   58  119 1    
   115   58  120 1    
   116   58  121 1    
   117   59   60 am   BACKBONE|DICT|INTERRES
   118   59  122 1    
   119   60   61 2    
   120   60   62 1    
   121   62   63 1    
   122   62   64 1    
   123   62  123 1    
   124   63  124 1    
   125   63  125 1    
   126   63  126 1    
   127   64   65 am   BACKBONE|DICT|INTERRES
   128   64  127 1    
   129   65   66 2    
@<TRIPOS>SUBSTRUCTURE
     1 UNK         1 GROUP             0       ****    0 ROOT    
