@<TRIPOS>MOLECULE
3R135
127   129    1
SMALL
USER_CHARGES


@<TRIPOS>ATOM
      1 CA        -79.1442   22.6772  -70.9317 C.3       0 UNK        -0.1998 
      2 C         -80.1473   23.4693  -71.7552 C.2       0 UNK         0.4909 
      3 O         -80.6292   22.9752  -72.7747 O.2       0 UNK        -0.5240 
      4 N         -80.4667   24.6975  -71.3288 N.am      1 UNK        -0.4739 
      5 CA        -81.3941   25.6023  -72.0152 C.3       1 UNK         0.0864 
      6 C6        -81.7950   26.8143  -71.1351 C.3       11 UNK        -0.0881 
      7 S7        -80.3781   27.7613  -70.4763 S.3       11 UNK        -0.2682 
      8 C8        -80.5090   29.3362  -71.3900 C.3       11 UNK         0.0289 
      9 C9        -79.1414   29.9136  -71.7354 C.ar      11 UNK        -0.0687 
     10 C10       -78.8647   30.3223  -73.0431 C.ar      11 UNK        -0.0823 
     11 C11       -77.5958   30.8007  -73.3943 C.ar      11 UNK        -0.0830 
     12 C12       -76.6212   30.9213  -72.3976 C.ar      11 UNK        -0.1021 
     13 C13       -76.8917   30.5496  -71.0751 C.ar      11 UNK        -0.0753 
     14 C14       -78.1547   30.0479  -70.7550 C.ar      11 UNK        -0.0933 
     15 C15       -75.8571   30.7127  -69.9645 C.3       11 UNK         0.0166 
     16 S16       -74.1487   30.3200  -70.4591 S.3       11 UNK        -0.2615 
     17 C17       -74.2444   28.5286  -70.7929 C.3       11 UNK        -0.0865 
     18 CA        -73.1441   28.0601  -71.7866 C.3       10 UNK         0.0862 
     19 C         -72.8366   26.5424  -71.6359 C.2       10 UNK         0.5551 
     20 N         -72.9963   25.7089  -72.6578 N.am      10 UNK        -0.7319 
     21 O         -72.4164   26.1116  -70.5650 O.2       10 UNK        -0.5018 
     22 N         -73.4246   28.4591  -73.1764 N.am      10 UNK        -0.4509 
     23 C         -72.9318   29.5446  -73.7859 C.2       10 UNK         0.4899 
     24 O         -72.2790   30.4259  -73.2246 O.2       10 UNK        -0.4839 
     25 CA        -73.1652   29.6107  -75.3077 C.3       9 UNK         0.0222 
     26 CB        -72.5920   30.8860  -75.9613 C.3       9 UNK        -0.1966 
     27 N         -72.6725   28.4012  -75.9846 N.am      9 UNK        -0.4218 
     28 C         -71.4191   27.9185  -75.9270 C.2       9 UNK         0.5020 
     29 O         -70.4859   28.5137  -75.3854 O.2       9 UNK        -0.5274 
     30 CA        -71.1294   26.5450  -76.5515 C.3       8 UNK         0.0270 
     31 CB        -70.3040   25.6578  -75.5937 C.3       8 UNK        -0.1976 
     32 N         -72.3254   25.8117  -76.9812 N.am      8 UNK        -0.4313 
     33 C         -72.3016   24.9032  -77.9662 C.2       8 UNK         0.5041 
     34 O         -71.3203   24.6860  -78.6797 O.2       8 UNK        -0.5577 
     35 CA        -73.5686   24.0636  -78.1746 C.3       7 UNK         0.0284 
     36 CB        -73.6937   23.0033  -77.0676 C.3       7 UNK        -0.1958 
     37 N         -74.7959   24.8575  -78.2596 N.am      7 UNK        -0.4454 
     38 C         -75.0773   25.7045  -79.2606 C.2       7 UNK         0.5089 
     39 O         -74.3078   25.9497  -80.1904 O.2       7 UNK        -0.5125 
     40 CA        -76.4602   26.3768  -79.2461 C.3       6 UNK         0.0408 
     41 CB        -77.5147   25.4412  -79.8580 C.3       6 UNK        -0.1791 
     42 N         -76.9009   26.8009  -77.9169 N.am      6 UNK        -0.4762 
     43 C         -76.3205   27.7656  -77.1890 C.2       6 UNK         0.5007 
     44 O         -75.3105   28.3753  -77.5397 O.2       6 UNK        -0.5032 
     45 CA        -76.9506   28.0593  -75.8129 C.3       5 UNK         0.0783 
     46 C46       -78.3259   28.7609  -75.9362 C.3       11 UNK        -0.0857 
     47 S47       -78.2788   30.5723  -76.1750 S.3       11 UNK        -0.2512 
     48 C48       -77.2346   31.2300  -74.8191 C.3       11 UNK         0.0225 
     49 N         -77.0507   26.8441  -75.0090 N.am      5 UNK        -0.4615 
     50 C         -76.0205   26.0906  -74.6079 C.2       4 UNK         0.5053 
     51 O         -74.8332   26.3872  -74.7784 O.2       4 UNK        -0.5105 
     52 CA        -76.3891   24.7667  -73.9205 C.3       4 UNK         0.0263 
     53 CB        -76.5939   24.9836  -72.4126 C.3       4 UNK        -0.1981 
     54 N         -77.5881   24.1502  -74.5040 N.am      4 UNK        -0.4224 
     55 C         -77.6550   23.6649  -75.7537 C.2       3 UNK         0.4895 
     56 O         -76.7022   23.6430  -76.5289 O.2       3 UNK        -0.5091 
     57 CA        -79.0240   23.1742  -76.2480 C.3       3 UNK         0.0250 
     58 CB        -79.3181   21.7545  -75.7390 C.3       3 UNK        -0.1996 
     59 N         -80.1073   24.0870  -75.8757 N.am      3 UNK        -0.4254 
     60 C         -80.2484   25.3201  -76.3877 C.2       2 UNK         0.5004 
     61 O         -79.5065   25.7857  -77.2514 O.2       2 UNK        -0.5226 
     62 CA        -81.3746   26.2064  -75.8240 C.3       2 UNK         0.0269 
     63 CB        -82.6381   26.0812  -76.6894 C.3       2 UNK        -0.1926 
     64 N         -81.7129   25.9298  -74.4244 N.am      2 UNK        -0.4687 
     65 C         -80.8527   26.0169  -73.4004 C.2       1 UNK         0.5165 
     66 O         -79.6753   26.3635  -73.5313 O.2       1 UNK        -0.5079 
     67 H67       -78.6447   23.3010  -70.1905 H         1 UNK         0.0900 
     68 H68       -79.6488   21.8641  -70.4105 H         1 UNK         0.0900 
     69 H69       -78.3835   22.2434  -71.5801 H         1 UNK         0.0900 
     70 H70       -80.0162   25.0845  -70.5114 H         1 UNK         0.2959 
     71 H71       -82.3064   25.0258  -72.1864 H         1 UNK         0.1079 
     72 H72       -82.4804   27.4728  -71.6716 H         1 UNK         0.0837 
     73 H73       -82.3642   26.4542  -70.2767 H         1 UNK         0.0837 
     74 H74       -81.0839   29.1800  -72.3038 H         1 UNK         0.0685 
     75 H75       -81.0659   30.0558  -70.7889 H         1 UNK         0.0685 
     76 H76       -79.6450   30.2568  -73.7871 H         1 UNK         0.1434 
     77 H77       -75.6465   31.3157  -72.6511 H         1 UNK         0.1329 
     78 H78       -78.3739   29.7559  -69.7370 H         1 UNK         0.1335 
     79 H79       -75.8870   31.7463  -69.6179 H         1 UNK         0.0680 
     80 H80       -76.1144   30.0914  -69.1050 H         1 UNK         0.0680 
     81 H81       -74.1499   28.0240  -69.8293 H         1 UNK         0.1032 
     82 H82       -75.2328   28.2678  -71.1752 H         1 UNK         0.1032 
     83 H83       -72.2063   28.5329  -71.4876 H         1 UNK         0.0461 
     84 H84       -72.7660   24.7380  -72.5215 H         1 UNK         0.3453 
     85 H85       -73.4066   26.0070  -73.5323 H         1 UNK         0.3453 
     86 H86       -73.9341   27.7825  -73.7339 H         1 UNK         0.2984 
     87 H87       -74.2423   29.6371  -75.4518 H         1 UNK         0.0554 
     88 H88       -72.8162   30.9176  -77.0275 H         1 UNK         0.0847 
     89 H89       -71.5102   30.9554  -75.8434 H         1 UNK         0.0847 
     90 H90       -73.0247   31.7809  -75.5125 H         1 UNK         0.0847 
     91 H91       -73.3742   27.8955  -76.5104 H         1 UNK         0.3141 
     92 H92       -70.5154   26.7603  -77.4287 H         1 UNK         0.0743 
     93 H93       -70.8613   25.4239  -74.6861 H         1 UNK         0.0784 
     94 H94       -70.0199   24.7162  -76.0636 H         1 UNK         0.0784 
     95 H95       -69.3789   26.1502  -75.2910 H         1 UNK         0.0784 
     96 H96       -73.1642   25.9094  -76.4224 H         1 UNK         0.3213 
     97 H97       -73.4548   23.5366  -79.1246 H         1 UNK         0.0855 
     98 H98       -73.9023   23.4529  -76.0960 H         1 UNK         0.0814 
     99 H99       -72.7731   22.4262  -76.9703 H         1 UNK         0.0814 
    100 H100      -74.4931   22.2957  -77.2875 H         1 UNK         0.0814 
    101 H101      -75.5186   24.6516  -77.5724 H         1 UNK         0.3105 
    102 H102      -76.3988   27.2696  -79.8719 H         1 UNK         0.0547 
    103 H103      -78.4810   25.9379  -79.9473 H         1 UNK         0.0837 
    104 H104      -77.2215   25.1199  -80.8583 H         1 UNK         0.0837 
    105 H105      -77.6561   24.5443  -79.2534 H         1 UNK         0.0837 
    106 H106      -77.7458   26.3575  -77.5604 H         1 UNK         0.3020 
    107 H107      -76.2707   28.7095  -75.2673 H         1 UNK         0.1245 
    108 H108      -78.9228   28.5597  -75.0481 H         1 UNK         0.0781 
    109 H109      -78.9115   28.3391  -76.7543 H         1 UNK         0.0781 
    110 H110      -77.2882   32.3186  -74.8611 H         1 UNK         0.0836 
    111 H111      -76.1946   30.9815  -75.0300 H         1 UNK         0.0836 
    112 H112      -77.9851   26.5483  -74.7479 H         1 UNK         0.3022 
    113 H113      -75.5508   24.0809  -74.0593 H         1 UNK         0.0747 
    114 H114      -76.7109   24.0348  -71.8912 H         1 UNK         0.0793 
    115 H115      -75.7362   25.4867  -71.9661 H         1 UNK         0.0793 
    116 H116      -77.4709   25.5971  -72.2030 H         1 UNK         0.0793 
    117 H117      -78.4362   24.1850  -73.9559 H         1 UNK         0.3047 
    118 H118      -78.9843   23.1344  -77.3390 H         1 UNK         0.0822 
    119 H119      -79.3329   21.7041  -74.6505 H         1 UNK         0.0807 
    120 H120      -78.5549   21.0553  -76.0834 H         1 UNK         0.0807 
    121 H121      -80.2783   21.3913  -76.1055 H         1 UNK         0.0807 
    122 H122      -80.7345   23.7844  -75.1420 H         1 UNK         0.2946 
    123 H123      -81.0262   27.2397  -75.8780 H         1 UNK         0.1144 
    124 H124      -82.4186   26.3059  -77.7344 H         1 UNK         0.0793 
    125 H125      -83.0550   25.0739  -76.6535 H         1 UNK         0.0793 
    126 H126      -83.4119   26.7783  -76.3669 H         1 UNK         0.0793 
    127 H127      -82.6598   25.6271  -74.2442 H         1 UNK         0.2896 
@<TRIPOS>BOND
     1    1    2 1    
     2    1   67 1    
     3    1   68 1    
     4    1   69 1    
     5    2    3 2    
     6    2    4 am   BACKBONE|DICT|INTERRES
     7    4    5 1    
     8    4   70 1    
     9    5    6 1    
    10    5   65 1    
    11    5   71 1    
    12    6    7 1    
    13    6   72 1    
    14    6   73 1    
    15    7    8 1    
    16    8    9 1    
    17    8   74 1    
    18    8   75 1    
    19    9   10 ar   
    20    9   14 ar   
    21   10   11 ar   
    22   10   76 1    
    23   11   12 ar   
    24   11   48 1    
    25   12   13 ar   
    26   12   77 1    
    27   13   14 ar   
    28   13   15 1    
    29   14   78 1    
    30   15   16 1    
    31   15   79 1    
    32   15   80 1    
    33   16   17 1    
    34   17   18 1    
    35   17   81 1    
    36   17   82 1    
    37   18   19 1    
    38   18   22 1    
    39   18   83 1    
    40   19   20 am   BACKBONE|DICT|INTERRES
    41   19   21 2    
    42   20   84 1    
    43   20   85 1    
    44   22   23 am   BACKBONE|DICT|INTERRES
    45   22   86 1    
    46   23   24 2    
    47   23   25 1    
    48   25   26 1    
    49   25   27 1    
    50   25   87 1    
    51   26   88 1    
    52   26   89 1    
    53   26   90 1    
    54   27   28 am   BACKBONE|DICT|INTERRES
    55   27   91 1    
    56   28   29 2    
    57   28   30 1    
    58   30   31 1    
    59   30   32 1    
    60   30   92 1    
    61   31   93 1    
    62   31   94 1    
    63   31   95 1    
    64   32   33 am   BACKBONE|DICT|INTERRES
    65   32   96 1    
    66   33   34 2    
    67   33   35 1    
    68   35   36 1    
    69   35   37 1    
    70   35   97 1    
    71   36   98 1    
    72   36   99 1    
    73   36  100 1    
    74   37   38 am   BACKBONE|DICT|INTERRES
    75   37  101 1    
    76   38   39 2    
    77   38   40 1    
    78   40   41 1    
    79   40   42 1    
    80   40  102 1    
    81   41  103 1    
    82   41  104 1    
    83   41  105 1    
    84   42   43 am   BACKBONE|DICT|INTERRES
    85   42  106 1    
    86   43   44 2    
    87   43   45 1    
    88   45   46 1    
    89   45   49 1    
    90   45  107 1    
    91   46   47 1    
    92   46  108 1    
    93   46  109 1    
    94   47   48 1    
    95   48  110 1    
    96   48  111 1    
    97   49   50 am   BACKBONE|DICT|INTERRES
    98   49  112 1    
    99   50   51 2    
   100   50   52 1    
   101   52   53 1    
   102   52   54 1    
   103   52  113 1    
   104   53  114 1    
   105   53  115 1    
   106   53  116 1    
   107   54   55 am   BACKBONE|DICT|INTERRES
   108   54  117 1    
   109   55   56 2    
   110   55   57 1    
   111   57   58 1    
   112   57   59 1    
   113   57  118 1    
   114   58  119 1    
   115   58  120 1    
   116   58  121 1    
   117   59   60 am   BACKBONE|DICT|INTERRES
   118   59  122 1    
   119   60   61 2    
   120   60   62 1    
   121   62   63 1    
   122   62   64 1    
   123   62  123 1    
   124   63  124 1    
   125   63  125 1    
   126   63  126 1    
   127   64   65 am   BACKBONE|DICT|INTERRES
   128   64  127 1    
   129   65   66 2    
@<TRIPOS>SUBSTRUCTURE
     1 UNK         1 GROUP             0       ****    0 ROOT    
