@<TRIPOS>MOLECULE
3R135
127   129    1
SMALL
USER_CHARGES


@<TRIPOS>ATOM
      1 CA        -85.2041   29.8028  -73.0573 C.3       0 UNK        -0.1998 
      2 C         -84.1278   29.5022  -74.0899 C.2       0 UNK         0.4909 
      3 O         -84.3781   29.6279  -75.2895 O.2       0 UNK        -0.5240 
      4 N         -82.9301   29.1165  -73.6330 N.am      1 UNK        -0.4739 
      5 CA        -81.7957   28.7358  -74.4823 C.3       1 UNK         0.0864 
      6 C6        -80.4652   28.7329  -73.6936 C.3       11 UNK        -0.0881 
      7 S7        -79.9864   30.4114  -73.1646 S.3       11 UNK        -0.2682 
      8 C8        -79.3722   30.1070  -71.4773 C.3       11 UNK         0.0289 
      9 C9        -78.2118   29.1202  -71.4558 C.ar      11 UNK        -0.0687 
     10 C10       -78.3414   27.8956  -70.7921 C.ar      11 UNK        -0.0823 
     11 C11       -77.2825   26.9823  -70.7602 C.ar      11 UNK        -0.0830 
     12 C12       -76.0836   27.3131  -71.4018 C.ar      11 UNK        -0.1021 
     13 C13       -75.9470   28.5248  -72.0828 C.ar      11 UNK        -0.0753 
     14 C14       -77.0091   29.4313  -72.0975 C.ar      11 UNK        -0.0933 
     15 C15       -74.6573   28.8289  -72.8230 C.3       11 UNK         0.0166 
     16 S16       -73.3565   29.4131  -71.6909 S.3       11 UNK        -0.2615 
     17 C17       -73.3515   31.2088  -72.0392 C.3       11 UNK        -0.0865 
     18 CA        -72.2586   31.6262  -73.0617 C.3       10 UNK         0.0862 
     19 C         -70.8353   31.6561  -72.4263 C.2       10 UNK         0.5551 
     20 N         -69.8738   30.8629  -72.8864 N.am      10 UNK        -0.7319 
     21 O         -70.5970   32.4305  -71.5026 O.2       10 UNK        -0.5018 
     22 N         -72.3665   30.8349  -74.2943 N.am      10 UNK        -0.4509 
     23 C         -71.8795   31.1694  -75.4924 C.2       10 UNK         0.4899 
     24 O         -71.3721   32.2633  -75.7444 O.2       10 UNK        -0.4839 
     25 CA        -71.9834   30.0888  -76.5889 C.3       9 UNK         0.0222 
     26 CB        -70.9240   30.2686  -77.6964 C.3       9 UNK        -0.1966 
     27 N         -71.9633   28.7073  -76.0794 N.am      9 UNK        -0.4218 
     28 C         -70.9866   28.1167  -75.3662 C.2       9 UNK         0.5020 
     29 O         -69.9915   28.7158  -74.9556 O.2       9 UNK        -0.5274 
     30 CA        -71.1299   26.6152  -75.0340 C.3       8 UNK         0.0270 
     31 CB        -71.3559   26.4032  -73.5278 C.3       8 UNK        -0.1976 
     32 N         -72.1942   25.9398  -75.7818 N.am      8 UNK        -0.4313 
     33 C         -72.1473   25.6713  -77.0961 C.2       8 UNK         0.5041 
     34 O         -71.1454   25.8500  -77.7895 O.2       8 UNK        -0.5577 
     35 CA        -73.4350   25.1564  -77.7700 C.3       7 UNK         0.0284 
     36 CB        -73.3184   23.6557  -78.0799 C.3       7 UNK        -0.1958 
     37 N         -74.6613   25.4031  -77.0025 N.am      7 UNK        -0.4454 
     38 C         -75.1372   26.6110  -76.6634 C.2       7 UNK         0.5089 
     39 O         -74.5869   27.6692  -76.9706 O.2       7 UNK        -0.5125 
     40 CA        -76.4088   26.6549  -75.7966 C.3       6 UNK         0.0408 
     41 CB        -77.6311   26.9691  -76.6703 C.3       6 UNK        -0.1791 
     42 N         -76.6666   25.4362  -75.0194 N.am      6 UNK        -0.4762 
     43 C         -75.8483   24.9297  -74.0820 C.2       6 UNK         0.5007 
     44 O         -74.7397   25.3980  -73.8181 O.2       6 UNK        -0.5032 
     45 CA        -76.3209   23.6436  -73.3753 C.3       5 UNK         0.0783 
     46 C46       -77.3334   23.9327  -72.2355 C.3       11 UNK        -0.0857 
     47 S47       -76.4965   24.2596  -70.6492 S.3       11 UNK        -0.2512 
     48 C48       -77.4526   25.6712  -69.9930 C.3       11 UNK         0.0225 
     49 N         -76.8441   22.6599  -74.3274 N.am      5 UNK        -0.4615 
     50 C         -76.1096   22.0286  -75.2547 C.2       4 UNK         0.5053 
     51 O         -74.9038   22.2148  -75.4079 O.2       4 UNK        -0.5105 
     52 CA        -76.8273   21.0113  -76.1604 C.3       4 UNK         0.0263 
     53 CB        -76.5209   19.5764  -75.7011 C.3       4 UNK        -0.1981 
     54 N         -78.2798   21.2001  -76.2095 N.am      4 UNK        -0.4224 
     55 C         -78.8913   22.2135  -76.8365 C.2       3 UNK         0.4895 
     56 O         -78.2877   23.0596  -77.5013 O.2       3 UNK        -0.5091 
     57 CA        -80.4285   22.2710  -76.7083 C.3       3 UNK         0.0250 
     58 CB        -80.9380   21.8519  -75.3092 C.3       3 UNK        -0.1996 
     59 N         -80.9839   23.5772  -77.0834 N.am      3 UNK        -0.4254 
     60 C         -80.7492   24.7629  -76.5005 C.2       2 UNK         0.5004 
     61 O         -80.0140   24.9165  -75.5198 O.2       2 UNK        -0.5226 
     62 CA        -81.4203   25.9827  -77.1706 C.3       2 UNK         0.0269 
     63 CB        -82.8508   25.6874  -77.6798 C.3       2 UNK        -0.1926 
     64 N         -81.4142   27.1888  -76.3318 N.am      2 UNK        -0.4687 
     65 C         -82.0282   27.3654  -75.1520 C.2       1 UNK         0.5165 
     66 O         -82.7249   26.5139  -74.5916 O.2       1 UNK        -0.5079 
     67 H67       -84.8415   29.6659  -72.0386 H         1 UNK         0.0900 
     68 H68       -86.0590   29.1434  -73.2043 H         1 UNK         0.0900 
     69 H69       -85.5455   30.8325  -73.1598 H         1 UNK         0.0900 
     70 H70       -82.7843   29.0167  -72.6392 H         1 UNK         0.2959 
     71 H71       -81.7189   29.4792  -75.2796 H         1 UNK         0.1079 
     72 H72       -80.5403   28.0708  -72.8290 H         1 UNK         0.0837 
     73 H73       -79.6458   28.3429  -74.3000 H         1 UNK         0.0837 
     74 H74       -80.1982   29.7556  -70.8570 H         1 UNK         0.0685 
     75 H75       -79.0436   31.0529  -71.0448 H         1 UNK         0.0685 
     76 H76       -79.2695   27.6552  -70.2913 H         1 UNK         0.1434 
     77 H77       -75.2480   26.6271  -71.3837 H         1 UNK         0.1329 
     78 H78       -76.9090   30.3728  -72.6199 H         1 UNK         0.1335 
     79 H79       -74.3105   27.9259  -73.3229 H         1 UNK         0.0680 
     80 H80       -74.8369   29.5522  -73.6196 H         1 UNK         0.0680 
     81 H81       -74.3340   31.5088  -72.4062 H         1 UNK         0.1032 
     82 H82       -73.2272   31.7461  -71.0971 H         1 UNK         0.1032 
     83 H83       -72.4669   32.6625  -73.3349 H         1 UNK         0.0461 
     84 H84       -70.0457   30.2118  -73.6455 H         1 UNK         0.3453 
     85 H85       -68.9605   30.9045  -72.4639 H         1 UNK         0.3453 
     86 H86       -72.7254   29.9005  -74.1730 H         1 UNK         0.2984 
     87 H87       -72.9641   30.2222  -77.0479 H         1 UNK         0.0554 
     88 H88       -71.0272   29.5084  -78.4708 H         1 UNK         0.0847 
     89 H89       -69.9104   30.2066  -77.2989 H         1 UNK         0.0847 
     90 H90       -71.0237   31.2396  -78.1830 H         1 UNK         0.0847 
     91 H91       -72.7675   28.1471  -76.3501 H         1 UNK         0.3141 
     92 H92       -70.1813   26.1434  -75.2986 H         1 UNK         0.0743 
     93 H93       -70.5699   26.8805  -72.9408 H         1 UNK         0.0784 
     94 H94       -72.3060   26.8189  -73.1960 H         1 UNK         0.0784 
     95 H95       -71.3508   25.3434  -73.2725 H         1 UNK         0.0784 
     96 H96       -73.0502   25.7393  -75.2760 H         1 UNK         0.3213 
     97 H97       -73.5354   25.6921  -78.7163 H         1 UNK         0.0855 
     98 H98       -73.1553   23.0697  -77.1752 H         1 UNK         0.0814 
     99 H99       -72.4761   23.4614  -78.7453 H         1 UNK         0.0814 
    100 H100      -74.2138   23.2759  -78.5724 H         1 UNK         0.0814 
    101 H101      -75.1628   24.5897  -76.6735 H         1 UNK         0.3105 
    102 H102      -76.2836   27.4726  -75.0842 H         1 UNK         0.0547 
    103 H103      -78.5152   27.1387  -76.0583 H         1 UNK         0.0837 
    104 H104      -77.4714   27.8712  -77.2626 H         1 UNK         0.0837 
    105 H105      -77.8513   26.1550  -77.3624 H         1 UNK         0.0837 
    106 H106      -77.5523   24.9754  -75.1899 H         1 UNK         0.3020 
    107 H107      -75.4298   23.1874  -72.9363 H         1 UNK         0.1245 
    108 H108      -77.9737   23.0656  -72.0660 H         1 UNK         0.0781 
    109 H109      -78.0106   24.7503  -72.4926 H         1 UNK         0.0781 
    110 H110      -77.1476   25.8407  -68.9596 H         1 UNK         0.0836 
    111 H111      -78.5053   25.3856  -69.9590 H         1 UNK         0.0836 
    112 H112      -77.8302   22.4549  -74.2738 H         1 UNK         0.3022 
    113 H113      -76.4300   21.1384  -77.1700 H         1 UNK         0.0747 
    114 H114      -76.9607   18.8409  -76.3751 H         1 UNK         0.0793 
    115 H115      -75.4454   19.3937  -75.6841 H         1 UNK         0.0793 
    116 H116      -76.8997   19.3827  -74.6967 H         1 UNK         0.0793 
    117 H117      -78.8425   20.5298  -75.7053 H         1 UNK         0.3047 
    118 H118      -80.8203   21.5574  -77.4347 H         1 UNK         0.0822 
    119 H119      -80.7305   20.8022  -75.1005 H         1 UNK         0.0807 
    120 H120      -82.0183   21.9771  -75.2320 H         1 UNK         0.0807 
    121 H121      -80.4820   22.4441  -74.5148 H         1 UNK         0.0807 
    122 H122      -81.5676   23.5716  -77.9077 H         1 UNK         0.2946 
    123 H123      -80.8019   26.2202  -78.0380 H         1 UNK         0.1144 
    124 H124      -82.8475   24.9623  -78.4940 H         1 UNK         0.0793 
    125 H125      -83.3258   26.5892  -78.0668 H         1 UNK         0.0793 
    126 H126      -83.4891   25.2908  -76.8892 H         1 UNK         0.0793 
    127 H127      -80.8468   27.9468  -76.6844 H         1 UNK         0.2896 
@<TRIPOS>BOND
     1    1    2 1    
     2    1   67 1    
     3    1   68 1    
     4    1   69 1    
     5    2    3 2    
     6    2    4 am   BACKBONE|DICT|INTERRES
     7    4    5 1    
     8    4   70 1    
     9    5    6 1    
    10    5   65 1    
    11    5   71 1    
    12    6    7 1    
    13    6   72 1    
    14    6   73 1    
    15    7    8 1    
    16    8    9 1    
    17    8   74 1    
    18    8   75 1    
    19    9   10 ar   
    20    9   14 ar   
    21   10   11 ar   
    22   10   76 1    
    23   11   12 ar   
    24   11   48 1    
    25   12   13 ar   
    26   12   77 1    
    27   13   14 ar   
    28   13   15 1    
    29   14   78 1    
    30   15   16 1    
    31   15   79 1    
    32   15   80 1    
    33   16   17 1    
    34   17   18 1    
    35   17   81 1    
    36   17   82 1    
    37   18   19 1    
    38   18   22 1    
    39   18   83 1    
    40   19   20 am   BACKBONE|DICT|INTERRES
    41   19   21 2    
    42   20   84 1    
    43   20   85 1    
    44   22   23 am   BACKBONE|DICT|INTERRES
    45   22   86 1    
    46   23   24 2    
    47   23   25 1    
    48   25   26 1    
    49   25   27 1    
    50   25   87 1    
    51   26   88 1    
    52   26   89 1    
    53   26   90 1    
    54   27   28 am   BACKBONE|DICT|INTERRES
    55   27   91 1    
    56   28   29 2    
    57   28   30 1    
    58   30   31 1    
    59   30   32 1    
    60   30   92 1    
    61   31   93 1    
    62   31   94 1    
    63   31   95 1    
    64   32   33 am   BACKBONE|DICT|INTERRES
    65   32   96 1    
    66   33   34 2    
    67   33   35 1    
    68   35   36 1    
    69   35   37 1    
    70   35   97 1    
    71   36   98 1    
    72   36   99 1    
    73   36  100 1    
    74   37   38 am   BACKBONE|DICT|INTERRES
    75   37  101 1    
    76   38   39 2    
    77   38   40 1    
    78   40   41 1    
    79   40   42 1    
    80   40  102 1    
    81   41  103 1    
    82   41  104 1    
    83   41  105 1    
    84   42   43 am   BACKBONE|DICT|INTERRES
    85   42  106 1    
    86   43   44 2    
    87   43   45 1    
    88   45   46 1    
    89   45   49 1    
    90   45  107 1    
    91   46   47 1    
    92   46  108 1    
    93   46  109 1    
    94   47   48 1    
    95   48  110 1    
    96   48  111 1    
    97   49   50 am   BACKBONE|DICT|INTERRES
    98   49  112 1    
    99   50   51 2    
   100   50   52 1    
   101   52   53 1    
   102   52   54 1    
   103   52  113 1    
   104   53  114 1    
   105   53  115 1    
   106   53  116 1    
   107   54   55 am   BACKBONE|DICT|INTERRES
   108   54  117 1    
   109   55   56 2    
   110   55   57 1    
   111   57   58 1    
   112   57   59 1    
   113   57  118 1    
   114   58  119 1    
   115   58  120 1    
   116   58  121 1    
   117   59   60 am   BACKBONE|DICT|INTERRES
   118   59  122 1    
   119   60   61 2    
   120   60   62 1    
   121   62   63 1    
   122   62   64 1    
   123   62  123 1    
   124   63  124 1    
   125   63  125 1    
   126   63  126 1    
   127   64   65 am   BACKBONE|DICT|INTERRES
   128   64  127 1    
   129   65   66 2    
@<TRIPOS>SUBSTRUCTURE
     1 UNK         1 GROUP             0       ****    0 ROOT    
