@<TRIPOS>MOLECULE
3R135
127   129    1
SMALL
USER_CHARGES


@<TRIPOS>ATOM
      1 CA        -83.7101   26.2589  -71.5585 C.3       0 UNK        -0.1998 
      2 C         -83.5748   26.9982  -72.8806 C.2       0 UNK         0.4909 
      3 O         -84.5774   27.2539  -73.5489 O.2       0 UNK        -0.5240 
      4 N         -82.3399   27.3310  -73.2757 N.am      1 UNK        -0.4739 
      5 CA        -81.9954   28.0434  -74.5138 C.3       1 UNK         0.0864 
      6 C6        -80.6509   28.8025  -74.3683 C.3       11 UNK        -0.0881 
      7 S7        -80.7513   30.1723  -73.1669 S.3       11 UNK        -0.2682 
      8 C8        -80.0247   29.4346  -71.6604 C.3       11 UNK         0.0289 
      9 C9        -78.5604   29.0087  -71.7778 C.ar      11 UNK        -0.0687 
     10 C10       -78.0956   27.9536  -70.9858 C.ar      11 UNK        -0.0823 
     11 C11       -76.7548   27.5566  -71.0293 C.ar      11 UNK        -0.0830 
     12 C12       -75.8722   28.2240  -71.8853 C.ar      11 UNK        -0.1021 
     13 C13       -76.3211   29.2774  -72.6864 C.ar      11 UNK        -0.0753 
     14 C14       -77.6604   29.6698  -72.6219 C.ar      11 UNK        -0.0933 
     15 C15       -75.3711   29.9949  -73.6314 C.3       11 UNK         0.0166 
     16 S16       -74.7005   31.5123  -72.8827 S.3       11 UNK        -0.2615 
     17 C17       -73.2379   30.8761  -71.9917 C.3       11 UNK        -0.0865 
     18 CA        -71.9180   31.1641  -72.7564 C.3       10 UNK         0.0862 
     19 C         -70.6683   30.7754  -71.9117 C.2       10 UNK         0.5551 
     20 N         -69.7509   29.9487  -72.4018 N.am      10 UNK        -0.7319 
     21 O         -70.5228   31.2441  -70.7854 O.2       10 UNK        -0.5018 
     22 N         -71.9401   30.5690  -74.1003 N.am      10 UNK        -0.4509 
     23 C         -71.2975   31.0437  -75.1726 C.2       10 UNK         0.4899 
     24 O         -70.6471   32.0901  -75.1772 O.2       10 UNK        -0.4839 
     25 CA        -71.4035   30.1879  -76.4521 C.3       9 UNK         0.0222 
     26 CB        -70.2782   30.4882  -77.4647 C.3       9 UNK        -0.1966 
     27 N         -71.4854   28.7439  -76.1841 N.am      9 UNK        -0.4218 
     28 C         -70.5882   27.9912  -75.5220 C.2       9 UNK         0.5020 
     29 O         -69.5644   28.4461  -75.0095 O.2       9 UNK        -0.5274 
     30 CA        -70.8865   26.4882  -75.3570 C.3       8 UNK         0.0270 
     31 CB        -71.1308   26.1521  -73.8757 C.3       8 UNK        -0.1976 
     32 N         -72.0280   26.0305  -76.1549 N.am      8 UNK        -0.4313 
     33 C         -71.9918   25.8355  -77.4830 C.2       8 UNK         0.5041 
     34 O         -70.9648   25.9442  -78.1539 O.2       8 UNK        -0.5577 
     35 CA        -73.3104   25.4890  -78.2009 C.3       7 UNK         0.0284 
     36 CB        -73.3041   24.0242  -78.6676 C.3       7 UNK        -0.1958 
     37 N         -74.5086   25.7438  -77.3951 N.am      7 UNK        -0.4454 
     38 C         -74.9582   26.9646  -77.0633 C.2       7 UNK         0.5089 
     39 O         -74.4043   28.0087  -77.4100 O.2       7 UNK        -0.5125 
     40 CA        -76.1919   27.0383  -76.1425 C.3       6 UNK         0.0408 
     41 CB        -77.4735   27.2203  -76.9667 C.3       6 UNK        -0.1791 
     42 N         -76.3411   25.8810  -75.2541 N.am      6 UNK        -0.4762 
     43 C         -75.4395   25.5196  -74.3261 C.2       6 UNK         0.5007 
     44 O         -74.3894   26.1345  -74.1381 O.2       6 UNK        -0.5032 
     45 CA        -75.7072   24.2180  -73.5349 C.3       5 UNK         0.0783 
     46 C46       -76.3947   24.4934  -72.1747 C.3       11 UNK        -0.0857 
     47 S47       -75.2386   25.1826  -70.9436 S.3       11 UNK        -0.2512 
     48 C48       -76.2687   26.4372  -70.1117 C.3       11 UNK         0.0225 
     49 N         -76.4537   23.2194  -74.3082 N.am      5 UNK        -0.4615 
     50 C         -76.0640   22.6893  -75.4761 C.2       4 UNK         0.5053 
     51 O         -74.9917   22.9545  -76.0170 O.2       4 UNK        -0.5105 
     52 CA        -77.0415   21.7331  -76.1846 C.3       4 UNK         0.0263 
     53 CB        -76.6064   20.2742  -75.9729 C.3       4 UNK        -0.1981 
     54 N         -78.4483   21.8803  -75.7879 N.am      4 UNK        -0.4224 
     55 C         -79.1816   22.9939  -75.9242 C.2       3 UNK         0.4895 
     56 O         -78.7375   24.0652  -76.3464 O.2       3 UNK        -0.5091 
     57 CA        -80.6396   22.9005  -75.4634 C.3       3 UNK         0.0250 
     58 CB        -80.7381   23.0022  -73.9293 C.3       3 UNK        -0.1996 
     59 N         -81.3952   23.9891  -76.0709 N.am      3 UNK        -0.4254 
     60 C         -82.7045   23.9915  -76.3374 C.2       2 UNK         0.5004 
     61 O         -83.4492   23.0357  -76.1100 O.2       2 UNK        -0.5226 
     62 CA        -83.2760   25.3034  -76.9121 C.3       2 UNK         0.0269 
     63 CB        -84.7625   25.1875  -77.2980 C.3       2 UNK        -0.1926 
     64 N         -83.1223   26.3963  -75.9486 N.am      2 UNK        -0.4687 
     65 C         -81.9889   27.0688  -75.7121 C.2       1 UNK         0.5165 
     66 O         -80.9619   26.8955  -76.3702 O.2       1 UNK        -0.5079 
     67 H67       -84.3454   26.8238  -70.8769 H         1 UNK         0.0900 
     68 H68       -82.7453   26.1067  -71.0751 H         1 UNK         0.0900 
     69 H69       -84.1665   25.2827  -71.7203 H         1 UNK         0.0900 
     70 H70       -81.5533   27.0612  -72.7040 H         1 UNK         0.2959 
     71 H71       -82.7729   28.7820  -74.7236 H         1 UNK         0.1079 
     72 H72       -79.8433   28.1192  -74.0991 H         1 UNK         0.0837 
     73 H73       -80.3593   29.2468  -75.3221 H         1 UNK         0.0837 
     74 H74       -80.6406   28.5866  -71.3597 H         1 UNK         0.0685 
     75 H75       -80.1004   30.1656  -70.8546 H         1 UNK         0.0685 
     76 H76       -78.7797   27.4505  -70.3158 H         1 UNK         0.1434 
     77 H77       -74.8360   27.9184  -71.9302 H         1 UNK         0.1329 
     78 H78       -77.9947   30.4983  -73.2303 H         1 UNK         0.1335 
     79 H79       -74.5631   29.3308  -73.9413 H         1 UNK         0.0680 
     80 H80       -75.9033   30.2659  -74.5445 H         1 UNK         0.0680 
     81 H81       -73.2219   31.3573  -71.0119 H         1 UNK         0.1032 
     82 H82       -73.3478   29.8086  -71.7966 H         1 UNK         0.1032 
     83 H83       -71.8533   32.2473  -72.8771 H         1 UNK         0.0461 
     84 H84       -68.9499   29.7183  -71.8361 H         1 UNK         0.3453 
     85 H85       -69.8289   29.5652  -73.3371 H         1 UNK         0.3453 
     86 H86       -72.4287   29.6920  -74.1890 H         1 UNK         0.2984 
     87 H87       -72.3502   30.4614  -76.9203 H         1 UNK         0.0554 
     88 H88       -70.3837   29.8841  -78.3658 H         1 UNK         0.0847 
     89 H89       -69.2919   30.2916  -77.0429 H         1 UNK         0.0847 
     90 H90       -70.2967   31.5340  -77.7738 H         1 UNK         0.0847 
     91 H91       -72.3102   28.2837  -76.5514 H         1 UNK         0.3141 
     92 H92       -69.9986   25.9432  -75.6845 H         1 UNK         0.0743 
     93 H93       -70.2412   26.3578  -73.2788 H         1 UNK         0.0784 
     94 H94       -71.9434   26.7441  -73.4535 H         1 UNK         0.0784 
     95 H95       -71.3754   25.0986  -73.7386 H         1 UNK         0.0784 
     96 H96       -72.9103   25.9306  -75.6636 H         1 UNK         0.3213 
     97 H97       -73.3686   26.1240  -79.0878 H         1 UNK         0.0855 
     98 H98       -73.1605   23.3350  -77.8352 H         1 UNK         0.0814 
     99 H99       -72.4924   23.8467  -79.3745 H         1 UNK         0.0814 
    100 H100      -74.2343   23.7587  -79.1701 H         1 UNK         0.0814 
    101 H101      -74.9792   24.9308  -77.0146 H         1 UNK         0.3105 
    102 H102      -76.0723   27.9192  -75.5108 H         1 UNK         0.0547 
    103 H103      -77.6808   26.3508  -77.5915 H         1 UNK         0.0837 
    104 H104      -78.3359   27.3809  -76.3204 H         1 UNK         0.0837 
    105 H105      -77.3978   28.0870  -77.6247 H         1 UNK         0.0837 
    106 H106      -77.1588   25.2988  -75.3993 H         1 UNK         0.3020 
    107 H107      -74.7287   23.7731  -73.3386 H         1 UNK         0.1245 
    108 H108      -76.7781   23.5635  -71.7516 H         1 UNK         0.0781 
    109 H109      -77.2628   25.1434  -72.3004 H         1 UNK         0.0781 
    110 H110      -77.1112   25.9301  -69.6388 H         1 UNK         0.0836 
    111 H111      -75.6877   26.8823  -69.3031 H         1 UNK         0.0836 
    112 H112      -77.3514   22.9436  -73.9403 H         1 UNK         0.3022 
    113 H113      -76.9812   21.9551  -77.2522 H         1 UNK         0.0747 
    114 H114      -75.5719   20.1253  -76.2866 H         1 UNK         0.0793 
    115 H115      -77.2198   19.5871  -76.5562 H         1 UNK         0.0793 
    116 H116      -76.6741   19.9804  -74.9246 H         1 UNK         0.0793 
    117 H117      -78.8938   21.0541  -75.4141 H         1 UNK         0.3047 
    118 H118      -81.0476   21.9447  -75.7996 H         1 UNK         0.0822 
    119 H119      -80.1880   22.1967  -73.4416 H         1 UNK         0.0807 
    120 H120      -81.7730   22.9321  -73.5935 H         1 UNK         0.0807 
    121 H121      -80.3333   23.9465  -73.5624 H         1 UNK         0.0807 
    122 H122      -80.8437   24.8113  -76.3044 H         1 UNK         0.2946 
    123 H123      -82.7106   25.5377  -77.8173 H         1 UNK         0.1144 
    124 H124      -85.3891   24.9664  -76.4329 H         1 UNK         0.0793 
    125 H125      -84.9163   24.3900  -78.0263 H         1 UNK         0.0793 
    126 H126      -85.1276   26.1106  -77.7484 H         1 UNK         0.0793 
    127 H127      -83.8990   26.5646  -75.3164 H         1 UNK         0.2896 
@<TRIPOS>BOND
     1    1    2 1    
     2    1   67 1    
     3    1   68 1    
     4    1   69 1    
     5    2    3 2    
     6    2    4 am   BACKBONE|DICT|INTERRES
     7    4    5 1    
     8    4   70 1    
     9    5    6 1    
    10    5   65 1    
    11    5   71 1    
    12    6    7 1    
    13    6   72 1    
    14    6   73 1    
    15    7    8 1    
    16    8    9 1    
    17    8   74 1    
    18    8   75 1    
    19    9   10 ar   
    20    9   14 ar   
    21   10   11 ar   
    22   10   76 1    
    23   11   12 ar   
    24   11   48 1    
    25   12   13 ar   
    26   12   77 1    
    27   13   14 ar   
    28   13   15 1    
    29   14   78 1    
    30   15   16 1    
    31   15   79 1    
    32   15   80 1    
    33   16   17 1    
    34   17   18 1    
    35   17   81 1    
    36   17   82 1    
    37   18   19 1    
    38   18   22 1    
    39   18   83 1    
    40   19   20 am   BACKBONE|DICT|INTERRES
    41   19   21 2    
    42   20   84 1    
    43   20   85 1    
    44   22   23 am   BACKBONE|DICT|INTERRES
    45   22   86 1    
    46   23   24 2    
    47   23   25 1    
    48   25   26 1    
    49   25   27 1    
    50   25   87 1    
    51   26   88 1    
    52   26   89 1    
    53   26   90 1    
    54   27   28 am   BACKBONE|DICT|INTERRES
    55   27   91 1    
    56   28   29 2    
    57   28   30 1    
    58   30   31 1    
    59   30   32 1    
    60   30   92 1    
    61   31   93 1    
    62   31   94 1    
    63   31   95 1    
    64   32   33 am   BACKBONE|DICT|INTERRES
    65   32   96 1    
    66   33   34 2    
    67   33   35 1    
    68   35   36 1    
    69   35   37 1    
    70   35   97 1    
    71   36   98 1    
    72   36   99 1    
    73   36  100 1    
    74   37   38 am   BACKBONE|DICT|INTERRES
    75   37  101 1    
    76   38   39 2    
    77   38   40 1    
    78   40   41 1    
    79   40   42 1    
    80   40  102 1    
    81   41  103 1    
    82   41  104 1    
    83   41  105 1    
    84   42   43 am   BACKBONE|DICT|INTERRES
    85   42  106 1    
    86   43   44 2    
    87   43   45 1    
    88   45   46 1    
    89   45   49 1    
    90   45  107 1    
    91   46   47 1    
    92   46  108 1    
    93   46  109 1    
    94   47   48 1    
    95   48  110 1    
    96   48  111 1    
    97   49   50 am   BACKBONE|DICT|INTERRES
    98   49  112 1    
    99   50   51 2    
   100   50   52 1    
   101   52   53 1    
   102   52   54 1    
   103   52  113 1    
   104   53  114 1    
   105   53  115 1    
   106   53  116 1    
   107   54   55 am   BACKBONE|DICT|INTERRES
   108   54  117 1    
   109   55   56 2    
   110   55   57 1    
   111   57   58 1    
   112   57   59 1    
   113   57  118 1    
   114   58  119 1    
   115   58  120 1    
   116   58  121 1    
   117   59   60 am   BACKBONE|DICT|INTERRES
   118   59  122 1    
   119   60   61 2    
   120   60   62 1    
   121   62   63 1    
   122   62   64 1    
   123   62  123 1    
   124   63  124 1    
   125   63  125 1    
   126   63  126 1    
   127   64   65 am   BACKBONE|DICT|INTERRES
   128   64  127 1    
   129   65   66 2    
@<TRIPOS>SUBSTRUCTURE
     1 UNK         1 GROUP             0       ****    0 ROOT    
