@<TRIPOS>MOLECULE
3R135
127   129    1
SMALL
USER_CHARGES


@<TRIPOS>ATOM
      1 CA        -83.9602   27.9191  -72.9895 C.3       0 UNK        -0.1998 
      2 C         -82.8305   28.8500  -73.4236 C.2       0 UNK         0.4909 
      3 O         -83.1090   29.9712  -73.8424 O.2       0 UNK        -0.5240 
      4 N         -81.5486   28.4544  -73.3591 N.am      1 UNK        -0.4739 
      5 CA        -80.9918   27.1664  -72.9054 C.3       1 UNK         0.0864 
      6 C6        -81.4054   26.7952  -71.4511 C.3       11 UNK        -0.0881 
      7 S7        -80.0696   26.0313  -70.4698 S.3       11 UNK        -0.2682 
      8 C8        -79.2263   27.4833  -69.7579 C.3       11 UNK         0.0289 
      9 C9        -78.1873   28.0446  -70.7173 C.ar      11 UNK        -0.0687 
     10 C10       -78.5086   29.0976  -71.5804 C.ar      11 UNK        -0.0823 
     11 C11       -77.5746   29.5665  -72.5103 C.ar      11 UNK        -0.0830 
     12 C12       -76.2881   29.0210  -72.5157 C.ar      11 UNK        -0.1021 
     13 C13       -75.9518   27.9737  -71.6543 C.ar      11 UNK        -0.0753 
     14 C14       -76.9060   27.4877  -70.7582 C.ar      11 UNK        -0.0933 
     15 C15       -74.5787   27.3279  -71.7401 C.3       11 UNK         0.0166 
     16 S16       -73.3952   27.9574  -70.5029 S.3       11 UNK        -0.2615 
     17 C17       -73.3491   29.7651  -70.7978 C.3       11 UNK        -0.0865 
     18 CA        -72.3618   30.2320  -71.9014 C.3       10 UNK         0.0862 
     19 C         -70.8682   30.0568  -71.4939 C.2       10 UNK         0.5551 
     20 N         -70.0360   29.3634  -72.2626 N.am      10 UNK        -0.7319 
     21 O         -70.4509   30.5804  -70.4637 O.2       10 UNK        -0.5018 
     22 N         -72.7145   29.6627  -73.2081 N.am      10 UNK        -0.4509 
     23 C         -72.4869   30.2353  -74.3951 C.2       10 UNK         0.4899 
     24 O         -72.0224   31.3684  -74.5285 O.2       10 UNK        -0.4839 
     25 CA        -72.8479   29.3952  -75.6402 C.3       9 UNK         0.0222 
     26 CB        -72.0939   29.8580  -76.9039 C.3       9 UNK        -0.1966 
     27 N         -72.6977   27.9389  -75.4691 N.am      9 UNK        -0.4218 
     28 C         -71.5948   27.2876  -75.0664 C.2       9 UNK         0.5020 
     29 O         -70.5544   27.8513  -74.7244 O.2       9 UNK        -0.5274 
     30 CA        -71.6498   25.7553  -75.0019 C.3       8 UNK         0.0270 
     31 CB        -71.8992   25.2802  -73.5606 C.3       8 UNK        -0.1976 
     32 N         -72.6568   25.1617  -75.8872 N.am      8 UNK        -0.4313 
     33 C         -72.3809   24.7019  -77.1157 C.2       8 UNK         0.5041 
     34 O         -71.3024   24.8752  -77.6857 O.2       8 UNK        -0.5577 
     35 CA        -73.4596   23.8506  -77.8021 C.3       7 UNK         0.0284 
     36 CB        -73.7298   22.5623  -77.0049 C.3       7 UNK        -0.1958 
     37 N         -74.7120   24.5727  -78.0200 N.am      7 UNK        -0.4454 
     38 C         -74.9106   25.4633  -79.0020 C.2       7 UNK         0.5089 
     39 O         -74.0475   25.7934  -79.8159 O.2       7 UNK        -0.5125 
     40 CA        -76.3149   26.0899  -79.1014 C.3       6 UNK         0.0408 
     41 CB        -77.2884   25.1375  -79.8129 C.3       6 UNK        -0.1791 
     42 N         -76.8621   26.4697  -77.7977 N.am      6 UNK        -0.4762 
     43 C         -76.3326   27.4163  -77.0097 C.2       6 UNK         0.5007 
     44 O         -75.3729   28.1122  -77.3366 O.2       6 UNK        -0.5032 
     45 CA        -76.9278   27.5697  -75.5982 C.3       5 UNK         0.0783 
     46 C46       -78.0824   28.6048  -75.5369 C.3       11 UNK        -0.0857 
     47 S47       -77.4524   30.2945  -75.2360 S.3       11 UNK        -0.2512 
     48 C48       -77.9695   30.6480  -73.5137 C.3       11 UNK         0.0225 
     49 N         -77.3040   26.2724  -75.0348 N.am      5 UNK        -0.4615 
     50 C         -76.4186   25.3681  -74.5947 C.2       4 UNK         0.5053 
     51 O         -75.1985   25.5373  -74.6126 O.2       4 UNK        -0.5105 
     52 CA        -76.9897   24.0366  -74.0855 C.3       4 UNK         0.0263 
     53 CB        -77.4548   24.1781  -72.6291 C.3       4 UNK        -0.1981 
     54 N         -78.0921   23.5447  -74.9173 N.am      4 UNK        -0.4224 
     55 C         -77.9393   23.1341  -76.1858 C.2       3 UNK         0.4895 
     56 O         -76.8560   23.1089  -76.7666 O.2       3 UNK        -0.5091 
     57 CA        -79.2027   22.7242  -76.9613 C.3       3 UNK         0.0250 
     58 CB        -79.5053   21.2333  -76.7446 C.3       3 UNK        -0.1996 
     59 N         -80.3906   23.5167  -76.6354 N.am      3 UNK        -0.4254 
     60 C         -80.4863   24.8504  -76.7264 C.2       2 UNK         0.5004 
     61 O         -79.5610   25.5832  -77.0828 O.2       2 UNK        -0.5226 
     62 CA        -81.8195   25.4942  -76.3070 C.3       2 UNK         0.0269 
     63 CB        -82.9693   24.4913  -76.0536 C.3       2 UNK        -0.1926 
     64 N         -81.6308   26.3678  -75.1447 N.am      2 UNK        -0.4687 
     65 C         -81.1575   26.0251  -73.9349 C.2       1 UNK         0.5165 
     66 O         -80.8202   24.8787  -73.6372 O.2       1 UNK        -0.5079 
     67 H67       -83.7943   26.8888  -73.2977 H         1 UNK         0.0900 
     68 H68       -84.0800   27.9472  -71.9071 H         1 UNK         0.0900 
     69 H69       -84.9021   28.2393  -73.4344 H         1 UNK         0.0900 
     70 H70       -80.8555   29.1174  -73.6753 H         1 UNK         0.2959 
     71 H71       -79.9151   27.3230  -72.9046 H         1 UNK         0.1079 
     72 H72       -81.7383   27.6812  -70.9088 H         1 UNK         0.0837 
     73 H73       -82.2603   26.1169  -71.4472 H         1 UNK         0.0837 
     74 H74       -79.9525   28.2480  -69.4788 H         1 UNK         0.0685 
     75 H75       -78.7369   27.1810  -68.8309 H         1 UNK         0.0685 
     76 H76       -79.5016   29.5247  -71.5496 H         1 UNK         0.1434 
     77 H77       -75.5555   29.3957  -73.2161 H         1 UNK         0.1329 
     78 H78       -76.6560   26.6649  -70.1023 H         1 UNK         0.1335 
     79 H79       -74.1724   27.4489  -72.7430 H         1 UNK         0.0680 
     80 H80       -74.6812   26.2510  -71.5980 H         1 UNK         0.0680 
     81 H81       -73.0946   30.2443  -69.8506 H         1 UNK         0.1032 
     82 H82       -74.3511   30.1288  -71.0203 H         1 UNK         0.1032 
     83 H83       -72.4964   31.3125  -71.9813 H         1 UNK         0.0461 
     84 H84       -70.3491   28.9293  -73.1256 H         1 UNK         0.3453 
     85 H85       -69.0734   29.2710  -71.9815 H         1 UNK         0.3453 
     86 H86       -73.0456   28.7116  -73.1903 H         1 UNK         0.2984 
     87 H87       -73.9095   29.5780  -75.8057 H         1 UNK         0.0554 
     88 H88       -72.2928   30.9082  -77.1206 H         1 UNK         0.0847 
     89 H89       -72.4043   29.2863  -77.7786 H         1 UNK         0.0847 
     90 H90       -71.0149   29.7450  -76.7931 H         1 UNK         0.0847 
     91 H91       -73.4974   27.3822  -75.7398 H         1 UNK         0.3141 
     92 H92       -70.6581   25.3974  -75.2878 H         1 UNK         0.0743 
     93 H93       -72.9079   25.5107  -73.2235 H         1 UNK         0.0784 
     94 H94       -71.7624   24.2021  -73.4750 H         1 UNK         0.0784 
     95 H95       -71.2043   25.7497  -72.8625 H         1 UNK         0.0784 
     96 H96       -73.5899   25.0402  -75.4987 H         1 UNK         0.3213 
     97 H97       -73.0671   23.5513  -78.7768 H         1 UNK         0.0855 
     98 H98       -74.1810   22.7687  -76.0336 H         1 UNK         0.0814 
     99 H99       -72.8057   22.0109  -76.8262 H         1 UNK         0.0814 
    100 H100      -74.4026   21.8978  -77.5473 H         1 UNK         0.0814 
    101 H101      -75.5012   24.3004  -77.4395 H         1 UNK         0.3105 
    102 H102      -76.2334   26.9978  -79.7028 H         1 UNK         0.0547 
    103 H103      -78.2781   25.5830  -79.9153 H         1 UNK         0.0837 
    104 H104      -77.3987   24.1964  -79.2748 H         1 UNK         0.0837 
    105 H105      -76.9339   24.8981  -80.8162 H         1 UNK         0.0837 
    106 H106      -77.6932   25.9777  -77.4795 H         1 UNK         0.3020 
    107 H107      -76.1083   27.9376  -74.9801 H         1 UNK         0.1245 
    108 H108      -78.7766   28.3551  -74.7359 H         1 UNK         0.0781 
    109 H109      -78.6808   28.5971  -76.4503 H         1 UNK         0.0781 
    110 H110      -79.0492   30.8034  -73.5060 H         1 UNK         0.0836 
    111 H111      -77.5232   31.5931  -73.2019 H         1 UNK         0.0836 
    112 H112      -78.2795   26.0174  -75.0815 H         1 UNK         0.3022 
    113 H113      -76.1866   23.2970  -74.1169 H         1 UNK         0.0747 
    114 H114      -77.8246   23.2321  -72.2337 H         1 UNK         0.0793 
    115 H115      -76.6344   24.5004  -71.9866 H         1 UNK         0.0793 
    116 H116      -78.2509   24.9162  -72.5317 H         1 UNK         0.0793 
    117 H117      -79.0224   23.5728  -74.5184 H         1 UNK         0.3047 
    118 H118      -78.9960   22.8769  -78.0220 H         1 UNK         0.0822 
    119 H119      -80.3331   20.9002  -77.3709 H         1 UNK         0.0807 
    120 H120      -79.7609   21.0189  -75.7061 H         1 UNK         0.0807 
    121 H121      -78.6408   20.6188  -77.0010 H         1 UNK         0.0807 
    122 H122      -81.1958   23.0072  -76.3015 H         1 UNK         0.2946 
    123 H123      -82.1160   26.1340  -77.1400 H         1 UNK         0.1144 
    124 H124      -82.7653   23.8225  -75.2168 H         1 UNK         0.0793 
    125 H125      -83.1593   23.8768  -76.9348 H         1 UNK         0.0793 
    126 H126      -83.8981   25.0164  -75.8300 H         1 UNK         0.0793 
    127 H127      -81.8291   27.3463  -75.3023 H         1 UNK         0.2896 
@<TRIPOS>BOND
     1    1    2 1    
     2    1   67 1    
     3    1   68 1    
     4    1   69 1    
     5    2    3 2    
     6    2    4 am   BACKBONE|DICT|INTERRES
     7    4    5 1    
     8    4   70 1    
     9    5    6 1    
    10    5   65 1    
    11    5   71 1    
    12    6    7 1    
    13    6   72 1    
    14    6   73 1    
    15    7    8 1    
    16    8    9 1    
    17    8   74 1    
    18    8   75 1    
    19    9   10 ar   
    20    9   14 ar   
    21   10   11 ar   
    22   10   76 1    
    23   11   12 ar   
    24   11   48 1    
    25   12   13 ar   
    26   12   77 1    
    27   13   14 ar   
    28   13   15 1    
    29   14   78 1    
    30   15   16 1    
    31   15   79 1    
    32   15   80 1    
    33   16   17 1    
    34   17   18 1    
    35   17   81 1    
    36   17   82 1    
    37   18   19 1    
    38   18   22 1    
    39   18   83 1    
    40   19   20 am   BACKBONE|DICT|INTERRES
    41   19   21 2    
    42   20   84 1    
    43   20   85 1    
    44   22   23 am   BACKBONE|DICT|INTERRES
    45   22   86 1    
    46   23   24 2    
    47   23   25 1    
    48   25   26 1    
    49   25   27 1    
    50   25   87 1    
    51   26   88 1    
    52   26   89 1    
    53   26   90 1    
    54   27   28 am   BACKBONE|DICT|INTERRES
    55   27   91 1    
    56   28   29 2    
    57   28   30 1    
    58   30   31 1    
    59   30   32 1    
    60   30   92 1    
    61   31   93 1    
    62   31   94 1    
    63   31   95 1    
    64   32   33 am   BACKBONE|DICT|INTERRES
    65   32   96 1    
    66   33   34 2    
    67   33   35 1    
    68   35   36 1    
    69   35   37 1    
    70   35   97 1    
    71   36   98 1    
    72   36   99 1    
    73   36  100 1    
    74   37   38 am   BACKBONE|DICT|INTERRES
    75   37  101 1    
    76   38   39 2    
    77   38   40 1    
    78   40   41 1    
    79   40   42 1    
    80   40  102 1    
    81   41  103 1    
    82   41  104 1    
    83   41  105 1    
    84   42   43 am   BACKBONE|DICT|INTERRES
    85   42  106 1    
    86   43   44 2    
    87   43   45 1    
    88   45   46 1    
    89   45   49 1    
    90   45  107 1    
    91   46   47 1    
    92   46  108 1    
    93   46  109 1    
    94   47   48 1    
    95   48  110 1    
    96   48  111 1    
    97   49   50 am   BACKBONE|DICT|INTERRES
    98   49  112 1    
    99   50   51 2    
   100   50   52 1    
   101   52   53 1    
   102   52   54 1    
   103   52  113 1    
   104   53  114 1    
   105   53  115 1    
   106   53  116 1    
   107   54   55 am   BACKBONE|DICT|INTERRES
   108   54  117 1    
   109   55   56 2    
   110   55   57 1    
   111   57   58 1    
   112   57   59 1    
   113   57  118 1    
   114   58  119 1    
   115   58  120 1    
   116   58  121 1    
   117   59   60 am   BACKBONE|DICT|INTERRES
   118   59  122 1    
   119   60   61 2    
   120   60   62 1    
   121   62   63 1    
   122   62   64 1    
   123   62  123 1    
   124   63  124 1    
   125   63  125 1    
   126   63  126 1    
   127   64   65 am   BACKBONE|DICT|INTERRES
   128   64  127 1    
   129   65   66 2    
@<TRIPOS>SUBSTRUCTURE
     1 UNK         1 GROUP             0       ****    0 ROOT    
