@<TRIPOS>MOLECULE
3R135
127   129    1
SMALL
USER_CHARGES


@<TRIPOS>ATOM
      1 CA        -80.6116   23.4305  -69.5956 C.3       0 UNK        -0.1998 
      2 C         -80.5063   24.0957  -70.9595 C.2       0 UNK         0.4909 
      3 O         -79.4362   24.0740  -71.5644 O.2       0 UNK        -0.5240 
      4 N         -81.6145   24.6735  -71.4448 N.am      1 UNK        -0.4739 
      5 CA        -81.7650   25.4126  -72.7126 C.3       1 UNK         0.0864 
      6 C6        -80.8349   26.6543  -72.8363 C.3       11 UNK        -0.0881 
      7 S7        -81.2023   27.8998  -71.5549 S.3       11 UNK        -0.2682 
      8 C8        -79.7125   27.8285  -70.5007 C.3       11 UNK         0.0289 
      9 C9        -78.5096   28.6204  -71.0162 C.ar      11 UNK        -0.0687 
     10 C10       -78.6572   29.7807  -71.7868 C.ar      11 UNK        -0.0823 
     11 C11       -77.5395   30.5183  -72.1872 C.ar      11 UNK        -0.0830 
     12 C12       -76.2645   30.1062  -71.7941 C.ar      11 UNK        -0.1021 
     13 C13       -76.0960   28.9530  -71.0224 C.ar      11 UNK        -0.0753 
     14 C14       -77.2230   28.2140  -70.6454 C.ar      11 UNK        -0.0933 
     15 C15       -74.7122   28.5259  -70.5428 C.3       11 UNK         0.0166 
     16 S16       -73.5229   28.2716  -71.9003 S.3       11 UNK        -0.2615 
     17 C17       -72.6948   29.8987  -72.0109 C.3       11 UNK        -0.0865 
     18 CA        -72.5861   30.4245  -73.4669 C.3       10 UNK         0.0862 
     19 C         -72.0864   31.8983  -73.4799 C.2       10 UNK         0.5551 
     20 N         -70.8887   32.1931  -73.9707 N.am      10 UNK        -0.7319 
     21 O         -72.8046   32.7896  -73.0342 O.2       10 UNK        -0.5018 
     22 N         -71.8184   29.4926  -74.3068 N.am      10 UNK        -0.4509 
     23 C         -71.7490   29.4955  -75.6420 C.2       10 UNK         0.4899 
     24 O         -72.2841   30.3428  -76.3569 O.2       10 UNK        -0.4839 
     25 CA        -70.9655   28.3442  -76.3030 C.3       9 UNK         0.0222 
     26 CB        -69.4479   28.6110  -76.2735 C.3       9 UNK        -0.1966 
     27 N         -71.2988   27.0072  -75.7841 N.am      9 UNK        -0.4218 
     28 C         -71.0836   26.4961  -74.5600 C.2       9 UNK         0.5020 
     29 O         -70.4741   27.0897  -73.6684 O.2       9 UNK        -0.5274 
     30 CA        -71.6808   25.1069  -74.2808 C.3       8 UNK         0.0270 
     31 CB        -71.8384   24.7967  -72.7798 C.3       8 UNK        -0.1976 
     32 N         -72.9740   24.9775  -74.9516 N.am      8 UNK        -0.4313 
     33 C         -73.3848   23.8935  -75.6203 C.2       8 UNK         0.5041 
     34 O         -72.7720   22.8248  -75.6398 O.2       8 UNK        -0.5577 
     35 CA        -74.6829   24.0271  -76.4389 C.3       7 UNK         0.0284 
     36 CB        -75.8843   23.6085  -75.5809 C.3       7 UNK        -0.1958 
     37 N         -74.9364   25.3675  -76.9805 N.am      7 UNK        -0.4454 
     38 C         -74.0913   26.1090  -77.7132 C.2       7 UNK         0.5089 
     39 O         -72.9565   25.7498  -78.0289 O.2       7 UNK        -0.5125 
     40 CA        -74.5579   27.5155  -78.1287 C.3       6 UNK         0.0408 
     41 CB        -75.0340   27.5039  -79.5895 C.3       6 UNK        -0.1791 
     42 N         -75.6126   28.0914  -77.2908 N.am      6 UNK        -0.4762 
     43 C         -75.5634   28.2995  -75.9648 C.2       6 UNK         0.5007 
     44 O         -74.6148   27.9723  -75.2538 O.2       6 UNK        -0.5032 
     45 CA        -76.8161   28.9454  -75.3369 C.3       5 UNK         0.0783 
     46 C46       -76.6760   30.4904  -75.3463 C.3       11 UNK        -0.0857 
     47 S47       -78.1680   31.3584  -74.7486 S.3       11 UNK        -0.2512 
     48 C48       -77.7118   31.7686  -73.0356 C.3       11 UNK         0.0225 
     49 N         -78.0442   28.4977  -76.0074 N.am      5 UNK        -0.4615 
     50 C         -78.4965   27.2376  -76.0254 C.2       4 UNK         0.5053 
     51 O         -77.9538   26.3169  -75.4133 O.2       4 UNK        -0.5105 
     52 CA        -79.7690   26.9803  -76.8568 C.3       4 UNK         0.0263 
     53 CB        -79.8506   27.8499  -78.1334 C.3       4 UNK        -0.1981 
     54 N         -79.9621   25.5642  -77.1890 N.am      4 UNK        -0.4224 
     55 C         -79.1733   24.7790  -77.9420 C.2       3 UNK         0.4895 
     56 O         -78.1279   25.1617  -78.4718 O.2       3 UNK        -0.5091 
     57 CA        -79.6677   23.3354  -78.1897 C.3       3 UNK         0.0250 
     58 CB        -78.5275   22.3405  -78.5012 C.3       3 UNK        -0.1996 
     59 N         -80.5655   22.8278  -77.1408 N.am      3 UNK        -0.4254 
     60 C         -80.2523   22.5650  -75.8633 C.2       2 UNK         0.5004 
     61 O         -79.1128   22.5998  -75.3992 O.2       2 UNK        -0.5226 
     62 CA        -81.4294   22.2386  -74.9279 C.3       2 UNK         0.0269 
     63 CB        -81.2966   20.8226  -74.3428 C.3       2 UNK        -0.1926 
     64 N         -81.5181   23.2088  -73.8331 N.am      2 UNK        -0.4687 
     65 C         -81.7257   24.5261  -73.9804 C.2       1 UNK         0.5165 
     66 O         -81.9384   25.0461  -75.0780 O.2       1 UNK        -0.5079 
     67 H67       -80.3648   22.3720  -69.6737 H         1 UNK         0.0900 
     68 H68       -79.9124   23.8929  -68.8995 H         1 UNK         0.0900 
     69 H69       -81.6136   23.5153  -69.1752 H         1 UNK         0.0900 
     70 H70       -82.4583   24.6305  -70.8895 H         1 UNK         0.2959 
     71 H71       -82.7893   25.7891  -72.6952 H         1 UNK         0.1079 
     72 H72       -80.9783   27.1494  -73.7976 H         1 UNK         0.0837 
     73 H73       -79.7814   26.3706  -72.8052 H         1 UNK         0.0837 
     74 H74       -79.4391   26.7844  -70.3455 H         1 UNK         0.0685 
     75 H75       -79.9757   28.2235  -69.5189 H         1 UNK         0.0685 
     76 H76       -79.6412   30.1222  -72.0758 H         1 UNK         0.1434 
     77 H77       -75.4043   30.6880  -72.0896 H         1 UNK         0.1329 
     78 H78       -77.1015   27.3303  -70.0338 H         1 UNK         0.1335 
     79 H79       -74.3283   29.2605  -69.8339 H         1 UNK         0.0680 
     80 H80       -74.7808   27.5877  -69.9901 H         1 UNK         0.0680 
     81 H81       -73.2243   30.6168  -71.3829 H         1 UNK         0.1032 
     82 H82       -71.7003   29.8030  -71.5712 H         1 UNK         0.1032 
     83 H83       -73.5945   30.4517  -73.8823 H         1 UNK         0.0461 
     84 H84       -70.3001   31.4651  -74.3420 H         1 UNK         0.3453 
     85 H85       -70.5765   33.1512  -73.9764 H         1 UNK         0.3453 
     86 H86       -71.3522   28.7306  -73.8211 H         1 UNK         0.2984 
     87 H87       -71.2672   28.3255  -77.3514 H         1 UNK         0.0554 
     88 H88       -68.8986   27.8322  -76.8024 H         1 UNK         0.0847 
     89 H89       -69.0581   28.6635  -75.2567 H         1 UNK         0.0847 
     90 H90       -69.2119   29.5592  -76.7582 H         1 UNK         0.0847 
     91 H91       -71.8073   26.4236  -76.4414 H         1 UNK         0.3141 
     92 H92       -70.9723   24.3912  -74.7030 H         1 UNK         0.0743 
     93 H93       -70.8826   24.8678  -72.2593 H         1 UNK         0.0784 
     94 H94       -72.5279   25.4891  -72.2972 H         1 UNK         0.0784 
     95 H95       -72.2162   23.7862  -72.6236 H         1 UNK         0.0784 
     96 H96       -73.5458   25.8151  -74.9847 H         1 UNK         0.3213 
     97 H97       -74.6093   23.3471  -77.2897 H         1 UNK         0.0855 
     98 H98       -75.9838   24.2326  -74.6915 H         1 UNK         0.0814 
     99 H99       -75.7922   22.5738  -75.2485 H         1 UNK         0.0814 
    100 H100      -76.8153   23.6901  -76.1397 H         1 UNK         0.0814 
    101 H101      -75.8450   25.7635  -76.7750 H         1 UNK         0.3105 
    102 H102      -73.6936   28.1780  -78.0554 H         1 UNK         0.0547 
    103 H103      -74.2619   27.1055  -80.2495 H         1 UNK         0.0837 
    104 H104      -75.9230   26.8843  -79.7176 H         1 UNK         0.0837 
    105 H105      -75.2689   28.5086  -79.9412 H         1 UNK         0.0837 
    106 H106      -76.4573   28.3665  -77.7704 H         1 UNK         0.3020 
    107 H107      -76.8657   28.6057  -74.2994 H         1 UNK         0.1245 
    108 H108      -76.4794   30.8501  -76.3584 H         1 UNK         0.0781 
    109 H109      -75.8164   30.7994  -74.7495 H         1 UNK         0.0781 
    110 H110      -78.4929   32.3944  -72.6016 H         1 UNK         0.0836 
    111 H111      -76.8030   32.3728  -73.0357 H         1 UNK         0.0836 
    112 H112      -78.5686   29.2137  -76.4882 H         1 UNK         0.3022 
    113 H113      -80.6099   27.2521  -76.2180 H         1 UNK         0.0747 
    114 H114      -80.7221   27.5862  -78.7328 H         1 UNK         0.0793 
    115 H115      -79.9460   28.9094  -77.8943 H         1 UNK         0.0793 
    116 H116      -78.9686   27.7307  -78.7640 H         1 UNK         0.0793 
    117 H117      -80.7552   25.1346  -76.7237 H         1 UNK         0.3047 
    118 H118      -80.2810   23.4005  -79.0897 H         1 UNK         0.0822 
    119 H119      -77.8306   22.2398  -77.6703 H         1 UNK         0.0807 
    120 H120      -77.9501   22.6652  -79.3676 H         1 UNK         0.0807 
    121 H121      -78.9194   21.3496  -78.7296 H         1 UNK         0.0807 
    122 H122      -81.5383   22.7651  -77.4097 H         1 UNK         0.2946 
    123 H123      -82.3624   22.2882  -75.4937 H         1 UNK         0.1144 
    124 H124      -81.2383   20.0770  -75.1370 H         1 UNK         0.0793 
    125 H125      -82.1548   20.5667  -73.7210 H         1 UNK         0.0793 
    126 H126      -80.3974   20.7205  -73.7336 H         1 UNK         0.0793 
    127 H127      -81.3104   22.8701  -72.9053 H         1 UNK         0.2896 
@<TRIPOS>BOND
     1    1    2 1    
     2    1   67 1    
     3    1   68 1    
     4    1   69 1    
     5    2    3 2    
     6    2    4 am   BACKBONE|DICT|INTERRES
     7    4    5 1    
     8    4   70 1    
     9    5    6 1    
    10    5   65 1    
    11    5   71 1    
    12    6    7 1    
    13    6   72 1    
    14    6   73 1    
    15    7    8 1    
    16    8    9 1    
    17    8   74 1    
    18    8   75 1    
    19    9   10 ar   
    20    9   14 ar   
    21   10   11 ar   
    22   10   76 1    
    23   11   12 ar   
    24   11   48 1    
    25   12   13 ar   
    26   12   77 1    
    27   13   14 ar   
    28   13   15 1    
    29   14   78 1    
    30   15   16 1    
    31   15   79 1    
    32   15   80 1    
    33   16   17 1    
    34   17   18 1    
    35   17   81 1    
    36   17   82 1    
    37   18   19 1    
    38   18   22 1    
    39   18   83 1    
    40   19   20 am   BACKBONE|DICT|INTERRES
    41   19   21 2    
    42   20   84 1    
    43   20   85 1    
    44   22   23 am   BACKBONE|DICT|INTERRES
    45   22   86 1    
    46   23   24 2    
    47   23   25 1    
    48   25   26 1    
    49   25   27 1    
    50   25   87 1    
    51   26   88 1    
    52   26   89 1    
    53   26   90 1    
    54   27   28 am   BACKBONE|DICT|INTERRES
    55   27   91 1    
    56   28   29 2    
    57   28   30 1    
    58   30   31 1    
    59   30   32 1    
    60   30   92 1    
    61   31   93 1    
    62   31   94 1    
    63   31   95 1    
    64   32   33 am   BACKBONE|DICT|INTERRES
    65   32   96 1    
    66   33   34 2    
    67   33   35 1    
    68   35   36 1    
    69   35   37 1    
    70   35   97 1    
    71   36   98 1    
    72   36   99 1    
    73   36  100 1    
    74   37   38 am   BACKBONE|DICT|INTERRES
    75   37  101 1    
    76   38   39 2    
    77   38   40 1    
    78   40   41 1    
    79   40   42 1    
    80   40  102 1    
    81   41  103 1    
    82   41  104 1    
    83   41  105 1    
    84   42   43 am   BACKBONE|DICT|INTERRES
    85   42  106 1    
    86   43   44 2    
    87   43   45 1    
    88   45   46 1    
    89   45   49 1    
    90   45  107 1    
    91   46   47 1    
    92   46  108 1    
    93   46  109 1    
    94   47   48 1    
    95   48  110 1    
    96   48  111 1    
    97   49   50 am   BACKBONE|DICT|INTERRES
    98   49  112 1    
    99   50   51 2    
   100   50   52 1    
   101   52   53 1    
   102   52   54 1    
   103   52  113 1    
   104   53  114 1    
   105   53  115 1    
   106   53  116 1    
   107   54   55 am   BACKBONE|DICT|INTERRES
   108   54  117 1    
   109   55   56 2    
   110   55   57 1    
   111   57   58 1    
   112   57   59 1    
   113   57  118 1    
   114   58  119 1    
   115   58  120 1    
   116   58  121 1    
   117   59   60 am   BACKBONE|DICT|INTERRES
   118   59  122 1    
   119   60   61 2    
   120   60   62 1    
   121   62   63 1    
   122   62   64 1    
   123   62  123 1    
   124   63  124 1    
   125   63  125 1    
   126   63  126 1    
   127   64   65 am   BACKBONE|DICT|INTERRES
   128   64  127 1    
   129   65   66 2    
@<TRIPOS>SUBSTRUCTURE
     1 UNK         1 GROUP             0       ****    0 ROOT    
