@<TRIPOS>MOLECULE
3R135
127   129    1
SMALL
USER_CHARGES


@<TRIPOS>ATOM
      1 CA        -83.4923   24.9099  -69.9924 C.3       0 UNK        -0.1998 
      2 C         -82.6660   25.5538  -71.0949 C.2       0 UNK         0.4909 
      3 O         -81.5415   25.1211  -71.3463 O.2       0 UNK        -0.5240 
      4 N         -83.2218   26.5732  -71.7660 N.am      1 UNK        -0.4739 
      5 CA        -82.6313   27.3729  -72.8542 C.3       1 UNK         0.0864 
      6 C6        -81.2932   28.0516  -72.4546 C.3       11 UNK        -0.0881 
      7 S7        -81.1114   29.7189  -73.1693 S.3       11 UNK        -0.2682 
      8 C8        -79.8940   30.4550  -72.0323 C.3       11 UNK         0.0289 
      9 C9        -78.5032   29.8873  -72.2695 C.ar      11 UNK        -0.0687 
     10 C10       -78.0705   28.7557  -71.5710 C.ar      11 UNK        -0.0823 
     11 C11       -76.8103   28.2032  -71.8233 C.ar      11 UNK        -0.0830 
     12 C12       -75.9669   28.8223  -72.7513 C.ar      11 UNK        -0.1021 
     13 C13       -76.3776   29.9686  -73.4368 C.ar      11 UNK        -0.0753 
     14 C14       -77.6512   30.4910  -73.1985 C.ar      11 UNK        -0.0933 
     15 C15       -75.4604   30.6299  -74.4548 C.3       11 UNK         0.0166 
     16 S16       -74.6593   32.1240  -73.7884 S.3       11 UNK        -0.2615 
     17 C17       -73.4140   31.4288  -72.6450 C.3       11 UNK        -0.0865 
     18 CA        -71.9903   31.3931  -73.2620 C.3       10 UNK         0.0862 
     19 C         -70.9166   31.0119  -72.1988 C.2       10 UNK         0.5551 
     20 N         -70.1028   29.9805  -72.3971 N.am      10 UNK        -0.7319 
     21 O         -70.8140   31.6760  -71.1704 O.2       10 UNK        -0.5018 
     22 N         -71.9554   30.5618  -74.4735 N.am      10 UNK        -0.4509 
     23 C         -71.0983   30.7060  -75.4897 C.2       10 UNK         0.4899 
     24 O         -70.2686   31.6136  -75.5662 O.2       10 UNK        -0.4839 
     25 CA        -71.1908   29.6401  -76.6002 C.3       9 UNK         0.0222 
     26 CB        -69.9178   29.5694  -77.4697 C.3       9 UNK        -0.1966 
     27 N         -71.5504   28.3055  -76.0978 N.am      9 UNK        -0.4218 
     28 C         -70.8732   27.5669  -75.2005 C.2       9 UNK         0.5020 
     29 O         -69.8522   27.9577  -74.6324 O.2       9 UNK        -0.5274 
     30 CA        -71.4305   26.1763  -74.8323 C.3       8 UNK         0.0270 
     31 CB        -71.9363   26.1768  -73.3794 C.3       8 UNK        -0.1976 
     32 N         -72.5026   25.7140  -75.7197 N.am      8 UNK        -0.4313 
     33 C         -72.3219   25.3266  -76.9926 C.2       8 UNK         0.5041 
     34 O         -71.2102   25.2064  -77.5091 O.2       8 UNK        -0.5577 
     35 CA        -73.5706   25.0580  -77.8591 C.3       7 UNK         0.0284 
     36 CB        -73.7874   23.5446  -78.0233 C.3       7 UNK        -0.1958 
     37 N         -74.8132   25.6647  -77.3706 N.am      7 UNK        -0.4454 
     38 C         -75.0180   26.9620  -77.1011 C.2       7 UNK         0.5089 
     39 O         -74.1823   27.8452  -77.2970 O.2       7 UNK        -0.5125 
     40 CA        -76.3486   27.3217  -76.4154 C.3       6 UNK         0.0408 
     41 CB        -77.4153   27.6792  -77.4590 C.3       6 UNK        -0.1791 
     42 N         -76.8631   26.2822  -75.5135 N.am      6 UNK        -0.4762 
     43 C         -76.1937   25.7481  -74.4773 C.2       6 UNK         0.5007 
     44 O         -75.0244   26.0170  -74.2030 O.2       6 UNK        -0.5032 
     45 CA        -76.9492   24.7021  -73.6410 C.3       5 UNK         0.0783 
     46 C46       -78.0534   25.3599  -72.7681 C.3       11 UNK        -0.0857 
     47 S47       -77.5665   25.5992  -71.0257 S.3       11 UNK        -0.2512 
     48 C48       -76.3359   26.9497  -71.0935 C.3       11 UNK         0.0225 
     49 N         -77.4831   23.6768  -74.5377 N.am      5 UNK        -0.4615 
     50 C         -76.7548   22.6815  -75.0640 C.2       4 UNK         0.5053 
     51 O         -75.5941   22.4382  -74.7354 O.2       4 UNK        -0.5105 
     52 CA        -77.4176   21.8173  -76.1535 C.3       4 UNK         0.0263 
     53 CB        -78.0086   20.5391  -75.5375 C.3       4 UNK        -0.1981 
     54 N         -78.4640   22.5197  -76.9004 N.am      4 UNK        -0.4224 
     55 C         -78.2615   23.5784  -77.6988 C.2       3 UNK         0.4895 
     56 O         -77.1507   24.0396  -77.9564 O.2       3 UNK        -0.5091 
     57 CA        -79.5172   24.2767  -78.2528 C.3       3 UNK         0.0250 
     58 CB        -79.9120   23.6749  -79.6104 C.3       3 UNK        -0.1996 
     59 N         -80.6654   24.2277  -77.3392 N.am      3 UNK        -0.4254 
     60 C         -80.6803   24.7330  -76.0971 C.2       2 UNK         0.5004 
     61 O         -79.7223   25.3190  -75.5841 O.2       2 UNK        -0.5226 
     62 CA        -81.9406   24.4364  -75.2709 C.3       2 UNK         0.0269 
     63 CB        -81.8897   22.9971  -74.7295 C.3       2 UNK        -0.1926 
     64 N         -82.0843   25.3452  -74.1362 N.am      2 UNK        -0.4687 
     65 C         -82.5192   26.6084  -74.1944 C.2       1 UNK         0.5165 
     66 O         -82.8743   27.1546  -75.2404 O.2       1 UNK        -0.5079 
     67 H67       -82.9649   24.9787  -69.0414 H         1 UNK         0.0900 
     68 H68       -83.6574   23.8561  -70.2150 H         1 UNK         0.0900 
     69 H69       -84.4642   25.3892  -69.8768 H         1 UNK         0.0900 
     70 H70       -84.1649   26.8437  -71.5213 H         1 UNK         0.2959 
     71 H71       -83.3683   28.1598  -73.0252 H         1 UNK         0.1079 
     72 H72       -80.4330   27.4389  -72.7288 H         1 UNK         0.0837 
     73 H73       -81.2442   28.1576  -71.3699 H         1 UNK         0.0837 
     74 H74       -79.8824   31.5356  -72.1828 H         1 UNK         0.0685 
     75 H75       -80.2033   30.2972  -70.9980 H         1 UNK         0.0685 
     76 H76       -78.7252   28.2880  -70.8487 H         1 UNK         0.1434 
     77 H77       -74.9891   28.4046  -72.9482 H         1 UNK         0.1329 
     78 H78       -77.9797   31.3681  -73.7392 H         1 UNK         0.1335 
     79 H79       -76.0431   30.9096  -75.3339 H         1 UNK         0.0680 
     80 H80       -74.7029   29.9296  -74.8083 H         1 UNK         0.0680 
     81 H81       -73.7152   30.4358  -72.3110 H         1 UNK         0.1032 
     82 H82       -73.4226   32.0545  -71.7504 H         1 UNK         0.1032 
     83 H83       -71.7471   32.4152  -73.5591 H         1 UNK         0.0461 
     84 H84       -70.1422   29.4296  -73.2470 H         1 UNK         0.3453 
     85 H85       -69.4150   29.7604  -71.6947 H         1 UNK         0.3453 
     86 H86       -72.5837   29.7743  -74.4913 H         1 UNK         0.2984 
     87 H87       -72.0138   29.9491  -77.2463 H         1 UNK         0.0554 
     88 H88       -70.0156   28.8204  -78.2555 H         1 UNK         0.0847 
     89 H89       -69.0366   29.3208  -76.8773 H         1 UNK         0.0847 
     90 H90       -69.7221   30.5251  -77.9576 H         1 UNK         0.0847 
     91 H91       -72.4096   27.9232  -76.4858 H         1 UNK         0.3141 
     92 H92       -70.6036   25.4668  -74.9036 H         1 UNK         0.0743 
     93 H93       -72.7192   26.9199  -73.2242 H         1 UNK         0.0784 
     94 H94       -72.3367   25.2033  -73.0957 H         1 UNK         0.0784 
     95 H95       -71.1281   26.4095  -72.6847 H         1 UNK         0.0784 
     96 H96       -73.4488   25.7752  -75.3504 H         1 UNK         0.3213 
     97 H97       -73.3715   25.4855  -78.8437 H         1 UNK         0.0855 
     98 H98       -74.0427   23.0706  -77.0747 H         1 UNK         0.0814 
     99 H99       -72.8876   23.0571  -78.4013 H         1 UNK         0.0814 
    100 H100      -74.5892   23.3323  -78.7308 H         1 UNK         0.0814 
    101 H101      -75.6023   25.0354  -77.2508 H         1 UNK         0.3105 
    102 H102      -76.1708   28.2048  -75.8022 H         1 UNK         0.0547 
    103 H103      -77.1076   28.5469  -78.0439 H         1 UNK         0.0837 
    104 H104      -77.5794   26.8611  -78.1592 H         1 UNK         0.0837 
    105 H105      -78.3691   27.9242  -76.9910 H         1 UNK         0.0837 
    106 H106      -77.8267   25.9924  -75.6553 H         1 UNK         0.3020 
    107 H107      -76.2204   24.2218  -72.9834 H         1 UNK         0.1245 
    108 H108      -78.9378   24.7207  -72.7405 H         1 UNK         0.0781 
    109 H109      -78.4112   26.3038  -73.1831 H         1 UNK         0.0781 
    110 H110      -75.4237   26.5608  -71.5482 H         1 UNK         0.0836 
    111 H111      -76.0688   27.2254  -70.0727 H         1 UNK         0.0836 
    112 H112      -78.4101   23.8559  -74.9029 H         1 UNK         0.3022 
    113 H113      -76.6373   21.5302  -76.8618 H         1 UNK         0.0747 
    114 H114      -78.4092   19.8764  -76.3049 H         1 UNK         0.0793 
    115 H115      -77.2453   19.9788  -74.9953 H         1 UNK         0.0793 
    116 H116      -78.8105   20.7628  -74.8326 H         1 UNK         0.0793 
    117 H117      -79.4122   22.2046  -76.7594 H         1 UNK         0.3047 
    118 H118      -79.2701   25.3277  -78.4067 H         1 UNK         0.0822 
    119 H119      -80.7431   24.2189  -80.0597 H         1 UNK         0.0807 
    120 H120      -80.2038   22.6277  -79.5210 H         1 UNK         0.0807 
    121 H121      -79.0794   23.7221  -80.3141 H         1 UNK         0.0807 
    122 H122      -81.4887   23.7514  -77.6800 H         1 UNK         0.2946 
    123 H123      -82.8147   24.5465  -75.9171 H         1 UNK         0.1144 
    124 H124      -81.0240   22.8392  -74.0843 H         1 UNK         0.0793 
    125 H125      -81.8331   22.2682  -75.5389 H         1 UNK         0.0793 
    126 H126      -82.7828   22.7616  -74.1502 H         1 UNK         0.0793 
    127 H127      -81.7783   25.0088  -73.2271 H         1 UNK         0.2896 
@<TRIPOS>BOND
     1    1    2 1    
     2    1   67 1    
     3    1   68 1    
     4    1   69 1    
     5    2    3 2    
     6    2    4 am   BACKBONE|DICT|INTERRES
     7    4    5 1    
     8    4   70 1    
     9    5    6 1    
    10    5   65 1    
    11    5   71 1    
    12    6    7 1    
    13    6   72 1    
    14    6   73 1    
    15    7    8 1    
    16    8    9 1    
    17    8   74 1    
    18    8   75 1    
    19    9   10 ar   
    20    9   14 ar   
    21   10   11 ar   
    22   10   76 1    
    23   11   12 ar   
    24   11   48 1    
    25   12   13 ar   
    26   12   77 1    
    27   13   14 ar   
    28   13   15 1    
    29   14   78 1    
    30   15   16 1    
    31   15   79 1    
    32   15   80 1    
    33   16   17 1    
    34   17   18 1    
    35   17   81 1    
    36   17   82 1    
    37   18   19 1    
    38   18   22 1    
    39   18   83 1    
    40   19   20 am   BACKBONE|DICT|INTERRES
    41   19   21 2    
    42   20   84 1    
    43   20   85 1    
    44   22   23 am   BACKBONE|DICT|INTERRES
    45   22   86 1    
    46   23   24 2    
    47   23   25 1    
    48   25   26 1    
    49   25   27 1    
    50   25   87 1    
    51   26   88 1    
    52   26   89 1    
    53   26   90 1    
    54   27   28 am   BACKBONE|DICT|INTERRES
    55   27   91 1    
    56   28   29 2    
    57   28   30 1    
    58   30   31 1    
    59   30   32 1    
    60   30   92 1    
    61   31   93 1    
    62   31   94 1    
    63   31   95 1    
    64   32   33 am   BACKBONE|DICT|INTERRES
    65   32   96 1    
    66   33   34 2    
    67   33   35 1    
    68   35   36 1    
    69   35   37 1    
    70   35   97 1    
    71   36   98 1    
    72   36   99 1    
    73   36  100 1    
    74   37   38 am   BACKBONE|DICT|INTERRES
    75   37  101 1    
    76   38   39 2    
    77   38   40 1    
    78   40   41 1    
    79   40   42 1    
    80   40  102 1    
    81   41  103 1    
    82   41  104 1    
    83   41  105 1    
    84   42   43 am   BACKBONE|DICT|INTERRES
    85   42  106 1    
    86   43   44 2    
    87   43   45 1    
    88   45   46 1    
    89   45   49 1    
    90   45  107 1    
    91   46   47 1    
    92   46  108 1    
    93   46  109 1    
    94   47   48 1    
    95   48  110 1    
    96   48  111 1    
    97   49   50 am   BACKBONE|DICT|INTERRES
    98   49  112 1    
    99   50   51 2    
   100   50   52 1    
   101   52   53 1    
   102   52   54 1    
   103   52  113 1    
   104   53  114 1    
   105   53  115 1    
   106   53  116 1    
   107   54   55 am   BACKBONE|DICT|INTERRES
   108   54  117 1    
   109   55   56 2    
   110   55   57 1    
   111   57   58 1    
   112   57   59 1    
   113   57  118 1    
   114   58  119 1    
   115   58  120 1    
   116   58  121 1    
   117   59   60 am   BACKBONE|DICT|INTERRES
   118   59  122 1    
   119   60   61 2    
   120   60   62 1    
   121   62   63 1    
   122   62   64 1    
   123   62  123 1    
   124   63  124 1    
   125   63  125 1    
   126   63  126 1    
   127   64   65 am   BACKBONE|DICT|INTERRES
   128   64  127 1    
   129   65   66 2    
@<TRIPOS>SUBSTRUCTURE
     1 UNK         1 GROUP             0       ****    0 ROOT    
