@<TRIPOS>MOLECULE
3R135
127   129    1
SMALL
USER_CHARGES


@<TRIPOS>ATOM
      1 CA        -83.9205   24.0453  -74.1786 C.3       0 UNK        -0.1998 
      2 C         -83.0261   25.2738  -74.2327 C.2       0 UNK         0.4909 
      3 O         -82.7677   25.7958  -75.3175 O.2       0 UNK        -0.5240 
      4 N         -82.5530   25.7444  -73.0709 N.am      1 UNK        -0.4739 
      5 CA        -81.7157   26.9419  -72.9411 C.3       1 UNK         0.0864 
      6 C6        -81.5681   27.3830  -71.4639 C.3       11 UNK        -0.0881 
      7 S7        -81.3714   29.1917  -71.3184 S.3       11 UNK        -0.2682 
      8 C8        -79.9531   29.3401  -70.1876 C.3       11 UNK         0.0289 
      9 C9        -78.6358   28.9811  -70.8593 C.ar      11 UNK        -0.0687 
     10 C10       -77.9950   27.7757  -70.5585 C.ar      11 UNK        -0.0823 
     11 C11       -76.7665   27.4583  -71.1454 C.ar      11 UNK        -0.0830 
     12 C12       -76.1828   28.3522  -72.0469 C.ar      11 UNK        -0.1021 
     13 C13       -76.8116   29.5640  -72.3502 C.ar      11 UNK        -0.0753 
     14 C14       -78.0378   29.8734  -71.7545 C.ar      11 UNK        -0.0933 
     15 C15       -76.1596   30.5323  -73.3225 C.3       11 UNK         0.0166 
     16 S16       -74.7759   31.4130  -72.5381 S.3       11 UNK        -0.2615 
     17 C17       -73.9913   32.2132  -73.9822 C.3       11 UNK        -0.0865 
     18 CA        -73.2518   31.2181  -74.9249 C.3       10 UNK         0.0862 
     19 C         -72.5760   31.8967  -76.1508 C.2       10 UNK         0.5551 
     20 N         -71.8519   31.1412  -76.9669 N.am      10 UNK        -0.7319 
     21 O         -72.7111   33.0977  -76.3748 O.2       10 UNK        -0.5018 
     22 N         -72.3627   30.2920  -74.2097 N.am      10 UNK        -0.4509 
     23 C         -71.2271   30.5848  -73.5664 C.2       10 UNK         0.4899 
     24 O         -70.7686   31.7230  -73.4634 O.2       10 UNK        -0.4839 
     25 CA        -70.4471   29.4085  -72.9406 C.3       9 UNK         0.0222 
     26 CB        -70.8178   29.2277  -71.4548 C.3       9 UNK        -0.1966 
     27 N         -70.5490   28.1450  -73.6926 N.am      9 UNK        -0.4218 
     28 C         -71.6228   27.3610  -73.8629 C.2       9 UNK         0.5020 
     29 O         -72.7072   27.5328  -73.3015 O.2       9 UNK        -0.5274 
     30 CA        -71.4930   26.2428  -74.9077 C.3       8 UNK         0.0270 
     31 CB        -71.4211   24.8687  -74.2247 C.3       8 UNK        -0.1976 
     32 N         -72.6246   26.2880  -75.8411 N.am      8 UNK        -0.4313 
     33 C         -72.8710   27.3151  -76.6730 C.2       8 UNK         0.5041 
     34 O         -72.1022   28.2714  -76.8000 O.2       8 UNK        -0.5577 
     35 CA        -74.1971   27.3237  -77.4635 C.3       7 UNK         0.0284 
     36 CB        -74.0432   27.9539  -78.8636 C.3       7 UNK        -0.1958 
     37 N         -74.8769   26.0275  -77.5424 N.am      7 UNK        -0.4454 
     38 C         -74.4394   24.8975  -78.1164 C.2       7 UNK         0.5089 
     39 O         -73.3772   24.8031  -78.7335 O.2       7 UNK        -0.5125 
     40 CA        -75.3401   23.6579  -77.9284 C.3       6 UNK         0.0408 
     41 CB        -74.6012   22.3340  -78.2129 C.3       6 UNK        -0.1791 
     42 N         -75.9868   23.6099  -76.6090 N.am      6 UNK        -0.4762 
     43 C         -75.3859   23.6359  -75.4072 C.2       6 UNK         0.5007 
     44 O         -74.1644   23.6911  -75.2726 O.2       6 UNK        -0.5032 
     45 CA        -76.2705   23.6310  -74.1397 C.3       5 UNK         0.0783 
     46 C46       -76.0128   24.8918  -73.2786 C.3       11 UNK        -0.0857 
     47 S47       -76.7768   24.7335  -71.6324 S.3       11 UNK        -0.2512 
     48 C48       -76.0586   26.1649  -70.7732 C.3       11 UNK         0.0225 
     49 N         -77.6967   23.4746  -74.4427 N.am      5 UNK        -0.4615 
     50 C         -78.2897   22.3206  -74.7702 C.2       4 UNK         0.5053 
     51 O         -77.7166   21.2314  -74.7784 O.2       4 UNK        -0.5105 
     52 CA        -79.7589   22.4092  -75.2121 C.3       4 UNK         0.0263 
     53 CB        -80.6980   22.2946  -74.0018 C.3       4 UNK        -0.1981 
     54 N         -80.0374   23.6414  -75.9606 N.am      4 UNK        -0.4224 
     55 C         -79.5714   23.8869  -77.1954 C.2       3 UNK         0.4895 
     56 O         -78.9236   23.0735  -77.8536 O.2       3 UNK        -0.5091 
     57 CA        -79.8209   25.2853  -77.7816 C.3       3 UNK         0.0250 
     58 CB        -81.1890   25.3505  -78.4782 C.3       3 UNK        -0.1996 
     59 N         -79.7207   26.3442  -76.7754 N.am      3 UNK        -0.4254 
     60 C         -78.5710   26.7382  -76.2060 C.2       2 UNK         0.5004 
     61 O         -77.4694   26.2722  -76.4934 O.2       2 UNK        -0.5226 
     62 CA        -78.6564   27.8198  -75.1162 C.3       2 UNK         0.0269 
     63 CB        -78.4677   29.2106  -75.7412 C.3       2 UNK        -0.1926 
     64 N         -79.9064   27.7994  -74.3522 N.am      2 UNK        -0.4687 
     65 C         -80.3493   26.7589  -73.6336 C.2       1 UNK         0.5165 
     66 O         -79.7468   25.6862  -73.5365 O.2       1 UNK        -0.5079 
     67 H67       -84.9666   24.3430  -74.2422 H         1 UNK         0.0900 
     68 H68       -83.7067   23.3837  -75.0175 H         1 UNK         0.0900 
     69 H69       -83.7788   23.4824  -73.2562 H         1 UNK         0.0900 
     70 H70       -82.7661   25.2576  -72.2122 H         1 UNK         0.2959 
     71 H71       -82.2561   27.7261  -73.4771 H         1 UNK         0.1079 
     72 H72       -80.7522   26.8546  -70.9672 H         1 UNK         0.0837 
     73 H73       -82.4680   27.1284  -70.9015 H         1 UNK         0.0837 
     74 H74       -80.1252   28.7206  -69.3060 H         1 UNK         0.0685 
     75 H75       -79.9003   30.3688  -69.8282 H         1 UNK         0.0685 
     76 H76       -78.4450   27.0849  -69.8586 H         1 UNK         0.1434 
     77 H77       -75.2291   28.1158  -72.5004 H         1 UNK         0.1329 
     78 H78       -78.5275   30.8102  -71.9826 H         1 UNK         0.1335 
     79 H79       -75.8099   29.9702  -74.1879 H         1 UNK         0.0680 
     80 H80       -76.8820   31.2611  -73.6926 H         1 UNK         0.0680 
     81 H81       -73.2912   32.9625  -73.6087 H         1 UNK         0.1032 
     82 H82       -74.7548   32.7649  -74.5337 H         1 UNK         0.1032 
     83 H83       -74.0140   30.5826  -75.3741 H         1 UNK         0.0461 
     84 H84       -71.4051   31.5598  -77.7665 H         1 UNK         0.3453 
     85 H85       -71.7996   30.1344  -76.8234 H         1 UNK         0.3453 
     86 H86       -72.6599   29.3234  -74.1891 H         1 UNK         0.2984 
     87 H87       -69.3918   29.6829  -72.9803 H         1 UNK         0.0554 
     88 H88       -70.5986   30.1344  -70.8896 H         1 UNK         0.0847 
     89 H89       -70.2522   28.4156  -70.9986 H         1 UNK         0.0847 
     90 H90       -71.8792   29.0171  -71.3198 H         1 UNK         0.0847 
     91 H91       -69.7283   27.9203  -74.2389 H         1 UNK         0.3141 
     92 H92       -70.5785   26.3888  -75.4865 H         1 UNK         0.0743 
     93 H93       -70.5427   24.7984  -73.5822 H         1 UNK         0.0784 
     94 H94       -71.3546   24.0632  -74.9564 H         1 UNK         0.0784 
     95 H95       -72.2958   24.6833  -73.5997 H         1 UNK         0.0784 
     96 H96       -73.2929   25.5278  -75.7770 H         1 UNK         0.3213 
     97 H97       -74.8685   27.9665  -76.8921 H         1 UNK         0.0855 
     98 H98       -73.3282   27.4054  -79.4774 H         1 UNK         0.0814 
     99 H99       -73.6874   28.9827  -78.7941 H         1 UNK         0.0814 
    100 H100      -74.9946   27.9782  -79.3947 H         1 UNK         0.0814 
    101 H101      -75.7900   25.9938  -77.0861 H         1 UNK         0.3105 
    102 H102      -76.1452   23.7531  -78.6582 H         1 UNK         0.0547 
    103 H103      -75.2633   21.4770  -78.0909 H         1 UNK         0.0837 
    104 H104      -73.7476   22.1967  -77.5483 H         1 UNK         0.0837 
    105 H105      -74.2243   22.3077  -79.2359 H         1 UNK         0.0837 
    106 H106      -76.9983   23.5952  -76.6264 H         1 UNK         0.3020 
    107 H107      -75.9485   22.7606  -73.5630 H         1 UNK         0.1245 
    108 H108      -76.3999   25.7855  -73.7703 H         1 UNK         0.0781 
    109 H109      -74.9427   25.0567  -73.1354 H         1 UNK         0.0781 
    110 H110      -74.9900   26.2300  -70.9858 H         1 UNK         0.0836 
    111 H111      -76.1423   26.0054  -69.6972 H         1 UNK         0.0836 
    112 H112      -78.2636   24.3127  -74.3831 H         1 UNK         0.3022 
    113 H113      -79.9538   21.5597  -75.8704 H         1 UNK         0.0747 
    114 H114      -81.7344   22.1935  -74.3186 H         1 UNK         0.0793 
    115 H115      -80.4608   21.4114  -73.4068 H         1 UNK         0.0793 
    116 H116      -80.6232   23.1594  -73.3420 H         1 UNK         0.0793 
    117 H117      -80.5253   24.3794  -75.4703 H         1 UNK         0.3047 
    118 H118      -79.0513   25.4669  -78.5355 H         1 UNK         0.0822 
    119 H119      -81.3520   26.3228  -78.9432 H         1 UNK         0.0807 
    120 H120      -82.0093   25.1686  -77.7836 H         1 UNK         0.0807 
    121 H121      -81.2593   24.5996  -79.2664 H         1 UNK         0.0807 
    122 H122      -80.5863   26.7604  -76.4594 H         1 UNK         0.2946 
    123 H123      -77.8422   27.6401  -74.4116 H         1 UNK         0.1144 
    124 H124      -78.5146   29.9959  -74.9876 H         1 UNK         0.0793 
    125 H125      -79.2317   29.4238  -76.4900 H         1 UNK         0.0793 
    126 H126      -77.4973   29.2880  -76.2336 H         1 UNK         0.0793 
    127 H127      -80.4562   28.6465  -74.3676 H         1 UNK         0.2896 
@<TRIPOS>BOND
     1    1    2 1    
     2    1   67 1    
     3    1   68 1    
     4    1   69 1    
     5    2    3 2    
     6    2    4 am   BACKBONE|DICT|INTERRES
     7    4    5 1    
     8    4   70 1    
     9    5    6 1    
    10    5   65 1    
    11    5   71 1    
    12    6    7 1    
    13    6   72 1    
    14    6   73 1    
    15    7    8 1    
    16    8    9 1    
    17    8   74 1    
    18    8   75 1    
    19    9   10 ar   
    20    9   14 ar   
    21   10   11 ar   
    22   10   76 1    
    23   11   12 ar   
    24   11   48 1    
    25   12   13 ar   
    26   12   77 1    
    27   13   14 ar   
    28   13   15 1    
    29   14   78 1    
    30   15   16 1    
    31   15   79 1    
    32   15   80 1    
    33   16   17 1    
    34   17   18 1    
    35   17   81 1    
    36   17   82 1    
    37   18   19 1    
    38   18   22 1    
    39   18   83 1    
    40   19   20 am   BACKBONE|DICT|INTERRES
    41   19   21 2    
    42   20   84 1    
    43   20   85 1    
    44   22   23 am   BACKBONE|DICT|INTERRES
    45   22   86 1    
    46   23   24 2    
    47   23   25 1    
    48   25   26 1    
    49   25   27 1    
    50   25   87 1    
    51   26   88 1    
    52   26   89 1    
    53   26   90 1    
    54   27   28 am   BACKBONE|DICT|INTERRES
    55   27   91 1    
    56   28   29 2    
    57   28   30 1    
    58   30   31 1    
    59   30   32 1    
    60   30   92 1    
    61   31   93 1    
    62   31   94 1    
    63   31   95 1    
    64   32   33 am   BACKBONE|DICT|INTERRES
    65   32   96 1    
    66   33   34 2    
    67   33   35 1    
    68   35   36 1    
    69   35   37 1    
    70   35   97 1    
    71   36   98 1    
    72   36   99 1    
    73   36  100 1    
    74   37   38 am   BACKBONE|DICT|INTERRES
    75   37  101 1    
    76   38   39 2    
    77   38   40 1    
    78   40   41 1    
    79   40   42 1    
    80   40  102 1    
    81   41  103 1    
    82   41  104 1    
    83   41  105 1    
    84   42   43 am   BACKBONE|DICT|INTERRES
    85   42  106 1    
    86   43   44 2    
    87   43   45 1    
    88   45   46 1    
    89   45   49 1    
    90   45  107 1    
    91   46   47 1    
    92   46  108 1    
    93   46  109 1    
    94   47   48 1    
    95   48  110 1    
    96   48  111 1    
    97   49   50 am   BACKBONE|DICT|INTERRES
    98   49  112 1    
    99   50   51 2    
   100   50   52 1    
   101   52   53 1    
   102   52   54 1    
   103   52  113 1    
   104   53  114 1    
   105   53  115 1    
   106   53  116 1    
   107   54   55 am   BACKBONE|DICT|INTERRES
   108   54  117 1    
   109   55   56 2    
   110   55   57 1    
   111   57   58 1    
   112   57   59 1    
   113   57  118 1    
   114   58  119 1    
   115   58  120 1    
   116   58  121 1    
   117   59   60 am   BACKBONE|DICT|INTERRES
   118   59  122 1    
   119   60   61 2    
   120   60   62 1    
   121   62   63 1    
   122   62   64 1    
   123   62  123 1    
   124   63  124 1    
   125   63  125 1    
   126   63  126 1    
   127   64   65 am   BACKBONE|DICT|INTERRES
   128   64  127 1    
   129   65   66 2    
@<TRIPOS>SUBSTRUCTURE
     1 UNK         1 GROUP             0       ****    0 ROOT    
