@<TRIPOS>MOLECULE
3R135
127   129    1
SMALL
USER_CHARGES


@<TRIPOS>ATOM
      1 CA        -78.0794   30.5129  -76.1496 C.3       0 UNK        -0.1998 
      2 C         -79.3583   29.9879  -75.5128 C.2       0 UNK         0.4909 
      3 O         -80.4473   30.3070  -75.9895 O.2       0 UNK        -0.5240 
      4 N         -79.2157   29.2052  -74.4354 N.am      1 UNK        -0.4739 
      5 CA        -80.2632   28.5261  -73.6638 C.3       1 UNK         0.0864 
      6 C6        -81.3867   29.4679  -73.1499 C.3       11 UNK        -0.0881 
      7 S7        -82.2915   28.7740  -71.7217 S.3       11 UNK        -0.2682 
      8 C8        -81.3941   29.4952  -70.3069 C.3       11 UNK         0.0289 
      9 C9        -79.9303   29.0781  -70.2932 C.ar      11 UNK        -0.0687 
     10 C10       -79.5824   27.7379  -70.0894 C.ar      11 UNK        -0.0823 
     11 C11       -78.2461   27.3291  -70.1522 C.ar      11 UNK        -0.0830 
     12 C12       -77.2515   28.2950  -70.3422 C.ar      11 UNK        -0.1021 
     13 C13       -77.5876   29.6290  -70.5787 C.ar      11 UNK        -0.0753 
     14 C14       -78.9278   30.0200  -70.5444 C.ar      11 UNK        -0.0933 
     15 C15       -76.4947   30.6250  -70.9208 C.3       11 UNK         0.0166 
     16 S16       -76.0874   30.5414  -72.6962 S.3       11 UNK        -0.2615 
     17 C17       -74.3771   31.1884  -72.6822 C.3       11 UNK        -0.0865 
     18 CA        -73.2890   30.1138  -72.9596 C.3       10 UNK         0.0862 
     19 C         -73.2718   28.9612  -71.9160 C.2       10 UNK         0.5551 
     20 N         -73.4064   27.7012  -72.3110 N.am      10 UNK        -0.7319 
     21 O         -73.1044   29.2156  -70.7260 O.2       10 UNK        -0.5018 
     22 N         -73.2901   29.6608  -74.3602 N.am      10 UNK        -0.4509 
     23 C         -72.5890   30.2360  -75.3441 C.2       10 UNK         0.4899 
     24 O         -71.9184   31.2602  -75.1992 O.2       10 UNK        -0.4839 
     25 CA        -72.6429   29.5398  -76.7173 C.3       9 UNK         0.0222 
     26 CB        -71.6877   30.1644  -77.7561 C.3       9 UNK        -0.1966 
     27 N         -72.4349   28.0905  -76.6256 N.am      9 UNK        -0.4218 
     28 C         -71.3667   27.4297  -76.1511 C.2       9 UNK         0.5020 
     29 O         -70.3430   27.9801  -75.7432 O.2       9 UNK        -0.5274 
     30 CA        -71.4446   25.8881  -76.1097 C.3       8 UNK         0.0270 
     31 CB        -71.5412   25.3879  -74.6589 C.3       8 UNK        -0.1976 
     32 N         -72.5612   25.3292  -76.8788 N.am      8 UNK        -0.4313 
     33 C         -72.6106   25.2669  -78.2168 C.2       8 UNK         0.5041 
     34 O         -71.6754   25.5838  -78.9527 O.2       8 UNK        -0.5577 
     35 CA        -73.9452   24.8213  -78.8399 C.3       7 UNK         0.0284 
     36 CB        -74.0348   23.2881  -78.8965 C.3       7 UNK        -0.1958 
     37 N         -75.1110   25.3680  -78.1349 N.am      7 UNK        -0.4454 
     38 C         -75.4037   26.6754  -78.0560 C.2       7 UNK         0.5089 
     39 O         -74.7570   27.5549  -78.6226 O.2       7 UNK        -0.5125 
     40 CA        -76.5707   27.0859  -77.1453 C.3       6 UNK         0.0408 
     41 CB        -77.9193   26.9178  -77.8609 C.3       6 UNK        -0.1791 
     42 N         -76.5855   26.3405  -75.8893 N.am      6 UNK        -0.4762 
     43 C         -75.6641   26.4253  -74.9218 C.2       6 UNK         0.5007 
     44 O         -74.7122   27.2070  -74.9423 O.2       6 UNK        -0.5032 
     45 CA        -75.8121   25.4560  -73.7351 C.3       5 UNK         0.0783 
     46 C46       -76.7525   26.0461  -72.6602 C.3       11 UNK        -0.0857 
     47 S47       -76.4641   25.2895  -71.0242 S.3       11 UNK        -0.2512 
     48 C48       -77.9132   25.8396  -70.0460 C.3       11 UNK         0.0225 
     49 N         -76.2351   24.1244  -74.1724 N.am      5 UNK        -0.4615 
     50 C         -75.4827   23.2864  -74.8953 C.2       4 UNK         0.5053 
     51 O         -74.3317   23.5382  -75.2532 O.2       4 UNK        -0.5105 
     52 CA        -76.1398   21.9597  -75.3140 C.3       4 UNK         0.0263 
     53 CB        -76.0859   20.9429  -74.1628 C.3       4 UNK        -0.1981 
     54 N         -77.5272   22.1258  -75.7608 N.am      4 UNK        -0.4224 
     55 C         -77.8802   22.7664  -76.8843 C.2       3 UNK         0.4895 
     56 O         -77.0732   23.2659  -77.6677 O.2       3 UNK        -0.5091 
     57 CA        -79.3877   22.9181  -77.1655 C.3       3 UNK         0.0250 
     58 CB        -79.9600   21.6156  -77.7482 C.3       3 UNK        -0.1996 
     59 N         -80.2141   23.3544  -76.0282 N.am      3 UNK        -0.4254 
     60 C         -79.9412   24.3818  -75.2112 C.2       2 UNK         0.5004 
     61 O         -78.8704   24.9868  -75.2132 O.2       2 UNK        -0.5226 
     62 CA        -81.0273   24.7921  -74.2005 C.3       2 UNK         0.0269 
     63 CB        -81.0658   23.8013  -73.0250 C.3       2 UNK        -0.1926 
     64 N         -80.7797   26.1365  -73.6665 N.am      2 UNK        -0.4687 
     65 C         -80.8003   27.2708  -74.3835 C.2       1 UNK         0.5165 
     66 O         -81.2119   27.3349  -75.5441 O.2       1 UNK        -0.5079 
     67 H67       -78.0188   30.1920  -77.1892 H         1 UNK         0.0900 
     68 H68       -77.1880   30.1584  -75.6318 H         1 UNK         0.0900 
     69 H69       -78.0700   31.6023  -76.1278 H         1 UNK         0.0900 
     70 H70       -78.2773   29.0174  -74.1111 H         1 UNK         0.2959 
     71 H71       -79.7129   28.1677  -72.7963 H         1 UNK         0.1079 
     72 H72       -82.1022   29.6868  -73.9446 H         1 UNK         0.0837 
     73 H73       -80.9653   30.4307  -72.8572 H         1 UNK         0.0837 
     74 H74       -81.8691   29.1677  -69.3812 H         1 UNK         0.0685 
     75 H75       -81.4923   30.5816  -70.3355 H         1 UNK         0.0685 
     76 H76       -80.3635   27.0074  -69.9264 H         1 UNK         0.1434 
     77 H77       -76.2105   28.0032  -70.3757 H         1 UNK         0.1329 
     78 H78       -79.1901   31.0512  -70.7382 H         1 UNK         0.1335 
     79 H79       -76.8000   31.6408  -70.6651 H         1 UNK         0.0680 
     80 H80       -75.6109   30.4056  -70.3200 H         1 UNK         0.0680 
     81 H81       -74.1770   31.6812  -71.7293 H         1 UNK         0.1032 
     82 H82       -74.3088   31.9804  -73.4293 H         1 UNK         0.1032 
     83 H83       -72.3284   30.6039  -72.7893 H         1 UNK         0.0461 
     84 H84       -73.3729   26.9717  -71.6175 H         1 UNK         0.3453 
     85 H85       -73.5821   27.4812  -73.2801 H         1 UNK         0.3453 
     86 H86       -73.8345   28.8276  -74.5660 H         1 UNK         0.2984 
     87 H87       -73.6610   29.6759  -77.0847 H         1 UNK         0.0554 
     88 H88       -71.7772   29.6688  -78.7228 H         1 UNK         0.0847 
     89 H89       -70.6460   30.0994  -77.4404 H         1 UNK         0.0847 
     90 H90       -71.9151   31.2197  -77.9113 H         1 UNK         0.0847 
     91 H91       -73.2267   27.5327  -76.9181 H         1 UNK         0.3141 
     92 H92       -70.5133   25.5093  -76.5358 H         1 UNK         0.0743 
     93 H93       -72.4709   25.7015  -74.1862 H         1 UNK         0.0784 
     94 H94       -71.4958   24.2996  -74.6121 H         1 UNK         0.0784 
     95 H95       -70.7198   25.7731  -74.0531 H         1 UNK         0.0784 
     96 H96       -73.3453   24.9627  -76.3470 H         1 UNK         0.3213 
     97 H97       -73.9716   25.1999  -79.8640 H         1 UNK         0.0855 
     98 H98       -74.0544   22.8460  -77.9001 H         1 UNK         0.0814 
     99 H99       -73.1790   22.8659  -79.4249 H         1 UNK         0.0814 
    100 H100      -74.9322   22.9635  -79.4234 H         1 UNK         0.0814 
    101 H101      -75.7379   24.6970  -77.6982 H         1 UNK         0.3105 
    102 H102      -76.4434   28.1418  -76.9016 H         1 UNK         0.0547 
    103 H103      -77.9483   27.5008  -78.7822 H         1 UNK         0.0837 
    104 H104      -78.1088   25.8771  -78.1248 H         1 UNK         0.0837 
    105 H105      -78.7452   27.2566  -77.2346 H         1 UNK         0.0837 
    106 H106      -77.3759   25.7111  -75.7389 H         1 UNK         0.3020 
    107 H107      -74.8157   25.3525  -73.3006 H         1 UNK         0.1245 
    108 H108      -76.5792   27.1185  -72.5673 H         1 UNK         0.0781 
    109 H109      -77.8001   25.9293  -72.9409 H         1 UNK         0.0781 
    110 H110      -78.7711   25.2443  -70.3625 H         1 UNK         0.0836 
    111 H111      -77.7394   25.5946  -68.9976 H         1 UNK         0.0836 
    112 H112      -77.1983   23.8815  -73.9918 H         1 UNK         0.3022 
    113 H113      -75.5631   21.5566  -76.1495 H         1 UNK         0.0747 
    114 H114      -76.4705   19.9713  -74.4736 H         1 UNK         0.0793 
    115 H115      -75.0594   20.7905  -73.8263 H         1 UNK         0.0793 
    116 H116      -76.6656   21.2741  -73.3002 H         1 UNK         0.0793 
    117 H117      -78.2547   21.7558  -75.1667 H         1 UNK         0.3047 
    118 H118      -79.4844   23.6928  -77.9287 H         1 UNK         0.0822 
    119 H119      -79.9620   20.8095  -77.0135 H         1 UNK         0.0807 
    120 H120      -79.3712   21.2770  -78.6022 H         1 UNK         0.0807 
    121 H121      -80.9830   21.7526  -78.0991 H         1 UNK         0.0807 
    122 H122      -81.1085   22.8951  -75.9326 H         1 UNK         0.2946 
    123 H123      -81.9933   24.7953  -74.7103 H         1 UNK         0.1144 
    124 H124      -81.8366   24.0725  -72.3032 H         1 UNK         0.0793 
    125 H125      -80.1114   23.7629  -72.4977 H         1 UNK         0.0793 
    126 H126      -81.2898   22.7900  -73.3669 H         1 UNK         0.0793 
    127 H127      -80.4463   26.1768  -72.7156 H         1 UNK         0.2896 
@<TRIPOS>BOND
     1    1    2 1    
     2    1   67 1    
     3    1   68 1    
     4    1   69 1    
     5    2    3 2    
     6    2    4 am   BACKBONE|DICT|INTERRES
     7    4    5 1    
     8    4   70 1    
     9    5    6 1    
    10    5   65 1    
    11    5   71 1    
    12    6    7 1    
    13    6   72 1    
    14    6   73 1    
    15    7    8 1    
    16    8    9 1    
    17    8   74 1    
    18    8   75 1    
    19    9   10 ar   
    20    9   14 ar   
    21   10   11 ar   
    22   10   76 1    
    23   11   12 ar   
    24   11   48 1    
    25   12   13 ar   
    26   12   77 1    
    27   13   14 ar   
    28   13   15 1    
    29   14   78 1    
    30   15   16 1    
    31   15   79 1    
    32   15   80 1    
    33   16   17 1    
    34   17   18 1    
    35   17   81 1    
    36   17   82 1    
    37   18   19 1    
    38   18   22 1    
    39   18   83 1    
    40   19   20 am   BACKBONE|DICT|INTERRES
    41   19   21 2    
    42   20   84 1    
    43   20   85 1    
    44   22   23 am   BACKBONE|DICT|INTERRES
    45   22   86 1    
    46   23   24 2    
    47   23   25 1    
    48   25   26 1    
    49   25   27 1    
    50   25   87 1    
    51   26   88 1    
    52   26   89 1    
    53   26   90 1    
    54   27   28 am   BACKBONE|DICT|INTERRES
    55   27   91 1    
    56   28   29 2    
    57   28   30 1    
    58   30   31 1    
    59   30   32 1    
    60   30   92 1    
    61   31   93 1    
    62   31   94 1    
    63   31   95 1    
    64   32   33 am   BACKBONE|DICT|INTERRES
    65   32   96 1    
    66   33   34 2    
    67   33   35 1    
    68   35   36 1    
    69   35   37 1    
    70   35   97 1    
    71   36   98 1    
    72   36   99 1    
    73   36  100 1    
    74   37   38 am   BACKBONE|DICT|INTERRES
    75   37  101 1    
    76   38   39 2    
    77   38   40 1    
    78   40   41 1    
    79   40   42 1    
    80   40  102 1    
    81   41  103 1    
    82   41  104 1    
    83   41  105 1    
    84   42   43 am   BACKBONE|DICT|INTERRES
    85   42  106 1    
    86   43   44 2    
    87   43   45 1    
    88   45   46 1    
    89   45   49 1    
    90   45  107 1    
    91   46   47 1    
    92   46  108 1    
    93   46  109 1    
    94   47   48 1    
    95   48  110 1    
    96   48  111 1    
    97   49   50 am   BACKBONE|DICT|INTERRES
    98   49  112 1    
    99   50   51 2    
   100   50   52 1    
   101   52   53 1    
   102   52   54 1    
   103   52  113 1    
   104   53  114 1    
   105   53  115 1    
   106   53  116 1    
   107   54   55 am   BACKBONE|DICT|INTERRES
   108   54  117 1    
   109   55   56 2    
   110   55   57 1    
   111   57   58 1    
   112   57   59 1    
   113   57  118 1    
   114   58  119 1    
   115   58  120 1    
   116   58  121 1    
   117   59   60 am   BACKBONE|DICT|INTERRES
   118   59  122 1    
   119   60   61 2    
   120   60   62 1    
   121   62   63 1    
   122   62   64 1    
   123   62  123 1    
   124   63  124 1    
   125   63  125 1    
   126   63  126 1    
   127   64   65 am   BACKBONE|DICT|INTERRES
   128   64  127 1    
   129   65   66 2    
@<TRIPOS>SUBSTRUCTURE
     1 UNK         1 GROUP             0       ****    0 ROOT    
