@<TRIPOS>MOLECULE
3R135
127   129    1
SMALL
USER_CHARGES


@<TRIPOS>ATOM
      1 CA        -82.8547   23.4938  -71.9791 C.3       0 UNK        -0.1998 
      2 C         -82.6669   24.7667  -72.7897 C.2       0 UNK         0.4909 
      3 O         -83.0521   24.8096  -73.9586 O.2       0 UNK        -0.5240 
      4 N         -82.0639   25.7973  -72.1808 N.am      1 UNK        -0.4739 
      5 CA        -81.7409   27.0948  -72.7874 C.3       1 UNK         0.0864 
      6 C6        -81.1100   28.0379  -71.7326 C.3       11 UNK        -0.0881 
      7 S7        -81.0403   29.7766  -72.2785 S.3       11 UNK        -0.2682 
      8 C8        -79.5782   30.3830  -71.3724 C.3       11 UNK         0.0289 
      9 C9        -78.2747   29.7983  -71.9023 C.ar      11 UNK        -0.0687 
     10 C10       -77.8369   30.1190  -73.1899 C.ar      11 UNK        -0.0823 
     11 C11       -76.6408   29.5960  -73.6900 C.ar      11 UNK        -0.0830 
     12 C12       -75.8675   28.7606  -72.8758 C.ar      11 UNK        -0.1021 
     13 C13       -76.2949   28.4269  -71.5875 C.ar      11 UNK        -0.0753 
     14 C14       -77.4989   28.9502  -71.1055 C.ar      11 UNK        -0.0933 
     15 C15       -75.4744   27.4775  -70.7257 C.3       11 UNK         0.0166 
     16 S16       -74.2776   28.3642  -69.6755 S.3       11 UNK        -0.2615 
     17 C17       -72.9682   28.7876  -70.8760 C.3       11 UNK        -0.0865 
     18 CA        -73.0334   30.2748  -71.3441 C.3       10 UNK         0.0862 
     19 C         -72.1351   31.2358  -70.5059 C.2       10 UNK         0.5551 
     20 N         -71.5547   32.2736  -71.0965 N.am      10 UNK        -0.7319 
     21 O         -71.9811   31.0602  -69.2997 O.2       10 UNK        -0.5018 
     22 N         -72.8953   30.4008  -72.8049 N.am      10 UNK        -0.4509 
     23 C         -71.8392   30.0187  -73.5332 C.2       10 UNK         0.4899 
     24 O         -70.7790   29.6005  -73.0631 O.2       10 UNK        -0.4839 
     25 CA        -72.0063   30.1368  -75.0583 C.3       9 UNK         0.0222 
     26 CB        -71.2905   31.3925  -75.5815 C.3       9 UNK        -0.1966 
     27 N         -71.5301   28.9628  -75.7984 N.am      9 UNK        -0.4218 
     28 C         -71.8878   27.6889  -75.5790 C.2       9 UNK         0.5020 
     29 O         -72.6462   27.3209  -74.6795 O.2       9 UNK        -0.5274 
     30 CA        -71.3505   26.6604  -76.5840 C.3       8 UNK         0.0270 
     31 CB        -70.9594   25.3338  -75.9077 C.3       8 UNK        -0.1976 
     32 N         -72.3944   26.4192  -77.5805 N.am      8 UNK        -0.4313 
     33 C         -72.4903   27.0773  -78.7451 C.2       8 UNK         0.5041 
     34 O         -71.6330   27.8753  -79.1295 O.2       8 UNK        -0.5577 
     35 CA        -73.7453   26.8754  -79.6233 C.3       7 UNK         0.0284 
     36 CB        -73.3833   26.6034  -81.0993 C.3       7 UNK        -0.1958 
     37 N         -74.7183   25.8994  -79.1156 N.am      7 UNK        -0.4454 
     38 C         -74.6184   24.5622  -79.0575 C.2       7 UNK         0.5089 
     39 O         -73.6691   23.9179  -79.5053 O.2       7 UNK        -0.5125 
     40 CA        -75.7730   23.8407  -78.3209 C.3       6 UNK         0.0408 
     41 CB        -75.4104   22.4004  -77.9051 C.3       6 UNK        -0.1791 
     42 N         -76.2713   24.5951  -77.1595 N.am      6 UNK        -0.4762 
     43 C         -75.5245   25.0661  -76.1459 C.2       6 UNK         0.5007 
     44 O         -74.3189   24.8530  -76.0338 O.2       6 UNK        -0.5032 
     45 CA        -76.2396   25.9508  -75.1110 C.3       5 UNK         0.0783 
     46 C46       -76.8387   27.2242  -75.7714 C.3       11 UNK        -0.0857 
     47 S47       -75.5756   28.5066  -76.0678 S.3       11 UNK        -0.2512 
     48 C48       -76.2193   29.9298  -75.1195 C.3       11 UNK         0.0225 
     49 N         -77.2491   25.1951  -74.3731 N.am      5 UNK        -0.4615 
     50 C         -77.0383   24.1098  -73.6149 C.2       4 UNK         0.5053 
     51 O         -75.9272   23.6489  -73.3556 O.2       4 UNK        -0.5105 
     52 CA        -78.2907   23.4039  -73.0685 C.3       4 UNK         0.0263 
     53 CB        -78.7252   24.0104  -71.7232 C.3       4 UNK        -0.1981 
     54 N         -79.3949   23.4722  -74.0291 N.am      4 UNK        -0.4224 
     55 C         -79.5058   22.6777  -75.1048 C.2       3 UNK         0.4895 
     56 O         -78.7686   21.7162  -75.3236 O.2       3 UNK        -0.5091 
     57 CA        -80.6120   23.0132  -76.1212 C.3       3 UNK         0.0250 
     58 CB        -81.8672   22.1657  -75.8599 C.3       3 UNK        -0.1996 
     59 N         -80.9678   24.4352  -76.1286 N.am      3 UNK        -0.4254 
     60 C         -80.2046   25.3942  -76.6756 C.2       2 UNK         0.5004 
     61 O         -79.1463   25.1709  -77.2657 O.2       2 UNK        -0.5226 
     62 CA        -80.6696   26.8531  -76.4950 C.3       2 UNK         0.0269 
     63 CB        -81.5717   27.2767  -77.6643 C.3       2 UNK        -0.1926 
     64 N         -81.3635   27.1055  -75.2260 N.am      2 UNK        -0.4687 
     65 C         -80.8262   26.9028  -74.0148 C.2       1 UNK         0.5165 
     66 O         -79.6765   26.4986  -73.8484 O.2       1 UNK        -0.5079 
     67 H67       -83.8902   23.1600  -72.0392 H         1 UNK         0.0900 
     68 H68       -82.2170   22.7017  -72.3704 H         1 UNK         0.0900 
     69 H69       -82.6078   23.6404  -70.9277 H         1 UNK         0.0900 
     70 H70       -81.7632   25.6850  -71.2233 H         1 UNK         0.2959 
     71 H71       -82.6833   27.5351  -73.1202 H         1 UNK         0.1079 
     72 H72       -80.1138   27.6900  -71.4532 H         1 UNK         0.0837 
     73 H73       -81.7005   28.0185  -70.8152 H         1 UNK         0.0837 
     74 H74       -79.7006   30.1672  -70.3098 H         1 UNK         0.0685 
     75 H75       -79.5382   31.4696  -71.4601 H         1 UNK         0.0685 
     76 H76       -78.4431   30.7683  -73.8070 H         1 UNK         0.1434 
     77 H77       -74.9403   28.3519  -73.2541 H         1 UNK         0.1329 
     78 H78       -77.8312   28.6944  -70.1088 H         1 UNK         0.1335 
     79 H79       -76.1411   26.9017  -70.0819 H         1 UNK         0.0680 
     80 H80       -74.9576   26.7455  -71.3488 H         1 UNK         0.0680 
     81 H81       -71.9963   28.5546  -70.4369 H         1 UNK         0.1032 
     82 H82       -73.0538   28.1074  -71.7247 H         1 UNK         0.1032 
     83 H83       -74.0456   30.6373  -71.1603 H         1 UNK         0.0461 
     84 H84       -70.9823   32.8979  -70.5503 H         1 UNK         0.3453 
     85 H85       -71.6767   32.4310  -72.0836 H         1 UNK         0.3453 
     86 H86       -73.7063   30.7676  -73.2807 H         1 UNK         0.2984 
     87 H87       -73.0692   30.2338  -75.2840 H         1 UNK         0.0554 
     88 H88       -71.6484   32.2886  -75.0727 H         1 UNK         0.0847 
     89 H89       -71.4666   31.5375  -76.6476 H         1 UNK         0.0847 
     90 H90       -70.2127   31.3367  -75.4224 H         1 UNK         0.0847 
     91 H91       -70.9167   29.1489  -76.5790 H         1 UNK         0.3141 
     92 H92       -70.4517   27.0594  -77.0593 H         1 UNK         0.0743 
     93 H93       -70.1652   25.4926  -75.1774 H         1 UNK         0.0784 
     94 H94       -70.5923   24.6118  -76.6372 H         1 UNK         0.0784 
     95 H95       -71.7964   24.8770  -75.3795 H         1 UNK         0.0784 
     96 H96       -73.1570   25.8210  -77.2727 H         1 UNK         0.3213 
     97 H97       -74.2664   27.8337  -79.5952 H         1 UNK         0.0855 
     98 H98       -72.7776   25.7040  -81.2115 H         1 UNK         0.0814 
     99 H99       -72.8084   27.4302  -81.5184 H         1 UNK         0.0814 
    100 H100      -74.2759   26.4884  -81.7140 H         1 UNK         0.0814 
    101 H101      -75.5433   26.3043  -78.6948 H         1 UNK         0.3105 
    102 H102      -76.6014   23.7842  -79.0285 H         1 UNK         0.0547 
    103 H103      -76.2449   21.9121  -77.4014 H         1 UNK         0.0837 
    104 H104      -74.5535   22.3784  -77.2309 H         1 UNK         0.0837 
    105 H105      -75.1564   21.7932  -78.7746 H         1 UNK         0.0837 
    106 H106      -77.2683   24.8070  -77.1661 H         1 UNK         0.3020 
    107 H107      -75.4897   26.2554  -74.3774 H         1 UNK         0.1245 
    108 H108      -77.6207   27.6385  -75.1357 H         1 UNK         0.0781 
    109 H109      -77.3348   27.0092  -76.7177 H         1 UNK         0.0781 
    110 H110      -77.0627   30.3430  -75.6750 H         1 UNK         0.0836 
    111 H111      -75.4609   30.7122  -75.0925 H         1 UNK         0.0836 
    112 H112      -78.1949   25.5650  -74.4121 H         1 UNK         0.3022 
    113 H113      -78.0373   22.3552  -72.8975 H         1 UNK         0.0747 
    114 H114      -79.6069   23.5068  -71.3271 H         1 UNK         0.0793 
    115 H115      -77.9327   23.9074  -70.9808 H         1 UNK         0.0793 
    116 H116      -78.9520   25.0733  -71.8043 H         1 UNK         0.0793 
    117 H117      -80.0029   24.2764  -73.9582 H         1 UNK         0.3047 
    118 H118      -80.2323   22.7522  -77.1118 H         1 UNK         0.0822 
    119 H119      -82.6389   22.3596  -76.6051 H         1 UNK         0.0807 
    120 H120      -82.2944   22.3620  -74.8769 H         1 UNK         0.0807 
    121 H121      -81.6340   21.1010  -75.9055 H         1 UNK         0.0807 
    122 H122      -81.8077   24.7013  -75.6233 H         1 UNK         0.2946 
    123 H123      -79.7771   27.4815  -76.5098 H         1 UNK         0.1144 
    124 H124      -81.8282   28.3346  -77.6051 H         1 UNK         0.0793 
    125 H125      -82.5006   26.7053  -77.6859 H         1 UNK         0.0793 
    126 H126      -81.0700   27.1202  -78.6205 H         1 UNK         0.0793 
    127 H127      -82.3298   27.3937  -75.2880 H         1 UNK         0.2896 
@<TRIPOS>BOND
     1    1    2 1    
     2    1   67 1    
     3    1   68 1    
     4    1   69 1    
     5    2    3 2    
     6    2    4 am   BACKBONE|DICT|INTERRES
     7    4    5 1    
     8    4   70 1    
     9    5    6 1    
    10    5   65 1    
    11    5   71 1    
    12    6    7 1    
    13    6   72 1    
    14    6   73 1    
    15    7    8 1    
    16    8    9 1    
    17    8   74 1    
    18    8   75 1    
    19    9   10 ar   
    20    9   14 ar   
    21   10   11 ar   
    22   10   76 1    
    23   11   12 ar   
    24   11   48 1    
    25   12   13 ar   
    26   12   77 1    
    27   13   14 ar   
    28   13   15 1    
    29   14   78 1    
    30   15   16 1    
    31   15   79 1    
    32   15   80 1    
    33   16   17 1    
    34   17   18 1    
    35   17   81 1    
    36   17   82 1    
    37   18   19 1    
    38   18   22 1    
    39   18   83 1    
    40   19   20 am   BACKBONE|DICT|INTERRES
    41   19   21 2    
    42   20   84 1    
    43   20   85 1    
    44   22   23 am   BACKBONE|DICT|INTERRES
    45   22   86 1    
    46   23   24 2    
    47   23   25 1    
    48   25   26 1    
    49   25   27 1    
    50   25   87 1    
    51   26   88 1    
    52   26   89 1    
    53   26   90 1    
    54   27   28 am   BACKBONE|DICT|INTERRES
    55   27   91 1    
    56   28   29 2    
    57   28   30 1    
    58   30   31 1    
    59   30   32 1    
    60   30   92 1    
    61   31   93 1    
    62   31   94 1    
    63   31   95 1    
    64   32   33 am   BACKBONE|DICT|INTERRES
    65   32   96 1    
    66   33   34 2    
    67   33   35 1    
    68   35   36 1    
    69   35   37 1    
    70   35   97 1    
    71   36   98 1    
    72   36   99 1    
    73   36  100 1    
    74   37   38 am   BACKBONE|DICT|INTERRES
    75   37  101 1    
    76   38   39 2    
    77   38   40 1    
    78   40   41 1    
    79   40   42 1    
    80   40  102 1    
    81   41  103 1    
    82   41  104 1    
    83   41  105 1    
    84   42   43 am   BACKBONE|DICT|INTERRES
    85   42  106 1    
    86   43   44 2    
    87   43   45 1    
    88   45   46 1    
    89   45   49 1    
    90   45  107 1    
    91   46   47 1    
    92   46  108 1    
    93   46  109 1    
    94   47   48 1    
    95   48  110 1    
    96   48  111 1    
    97   49   50 am   BACKBONE|DICT|INTERRES
    98   49  112 1    
    99   50   51 2    
   100   50   52 1    
   101   52   53 1    
   102   52   54 1    
   103   52  113 1    
   104   53  114 1    
   105   53  115 1    
   106   53  116 1    
   107   54   55 am   BACKBONE|DICT|INTERRES
   108   54  117 1    
   109   55   56 2    
   110   55   57 1    
   111   57   58 1    
   112   57   59 1    
   113   57  118 1    
   114   58  119 1    
   115   58  120 1    
   116   58  121 1    
   117   59   60 am   BACKBONE|DICT|INTERRES
   118   59  122 1    
   119   60   61 2    
   120   60   62 1    
   121   62   63 1    
   122   62   64 1    
   123   62  123 1    
   124   63  124 1    
   125   63  125 1    
   126   63  126 1    
   127   64   65 am   BACKBONE|DICT|INTERRES
   128   64  127 1    
   129   65   66 2    
@<TRIPOS>SUBSTRUCTURE
     1 UNK         1 GROUP             0       ****    0 ROOT    
