@<TRIPOS>MOLECULE
3R135
127   129    1
SMALL
USER_CHARGES


@<TRIPOS>ATOM
      1 CA        -83.9986   25.9999  -69.6418 C.3       0 UNK        -0.1998 
      2 C         -83.0491   26.6104  -70.6618 C.2       0 UNK         0.4909 
      3 O         -83.2619   27.7446  -71.0908 O.2       0 UNK        -0.5240 
      4 N         -82.0013   25.8682  -71.0435 N.am      1 UNK        -0.4739 
      5 CA        -80.9923   26.2678  -72.0312 C.3       1 UNK         0.0864 
      6 C6        -79.8102   25.2675  -72.0671 C.3       11 UNK        -0.0881 
      7 S7        -78.6771   25.4763  -70.6549 S.3       11 UNK        -0.2682 
      8 C8        -77.1326   25.9752  -71.4874 C.3       11 UNK         0.0289 
      9 C9        -77.0825   27.4687  -71.7863 C.ar      11 UNK        -0.0687 
     10 C10       -77.8578   28.0189  -72.8114 C.ar      11 UNK        -0.0823 
     11 C11       -77.7802   29.3795  -73.1172 C.ar      11 UNK        -0.0830 
     12 C12       -76.9195   30.1990  -72.3820 C.ar      11 UNK        -0.1021 
     13 C13       -76.1385   29.6645  -71.3530 C.ar      11 UNK        -0.0753 
     14 C14       -76.2275   28.3009  -71.0571 C.ar      11 UNK        -0.0933 
     15 C15       -75.1969   30.5573  -70.5594 C.3       11 UNK         0.0166 
     16 S16       -73.4950   30.4725  -71.1973 S.3       11 UNK        -0.2615 
     17 C17       -73.6655   31.3661  -72.7842 C.3       11 UNK        -0.0865 
     18 CA        -72.3151   31.6875  -73.4779 C.3       10 UNK         0.0862 
     19 C         -71.5185   32.8040  -72.7427 C.2       10 UNK         0.5551 
     20 N         -71.9338   34.0548  -72.8921 N.am      10 UNK        -0.7319 
     21 O         -70.5518   32.5518  -72.0250 O.2       10 UNK        -0.5018 
     22 N         -71.5435   30.4604  -73.7048 N.am      10 UNK        -0.4509 
     23 C         -70.4762   30.3398  -74.5031 C.2       10 UNK         0.4899 
     24 O         -70.0369   31.2484  -75.2089 O.2       10 UNK        -0.4839 
     25 CA        -69.7812   28.9649  -74.5271 C.3       9 UNK         0.0222 
     26 CB        -68.5514   28.9729  -73.6043 C.3       9 UNK        -0.1966 
     27 N         -70.6669   27.8584  -74.1445 N.am      9 UNK        -0.4218 
     28 C         -71.6680   27.3919  -74.9036 C.2       9 UNK         0.5020 
     29 O         -71.9373   27.8240  -76.0268 O.2       9 UNK        -0.5274 
     30 CA        -72.5367   26.2891  -74.2726 C.3       8 UNK         0.0270 
     31 CB        -73.7300   26.9140  -73.5275 C.3       8 UNK        -0.1976 
     32 N         -73.0428   25.3355  -75.2614 N.am      8 UNK        -0.4313 
     33 C         -72.2921   24.5222  -76.0175 C.2       8 UNK         0.5041 
     34 O         -71.0657   24.4396  -75.9307 O.2       8 UNK        -0.5577 
     35 CA        -73.0322   23.6390  -77.0347 C.3       7 UNK         0.0284 
     36 CB        -73.5314   22.3457  -76.3681 C.3       7 UNK        -0.1958 
     37 N         -74.1622   24.3404  -77.6476 N.am      7 UNK        -0.4454 
     38 C         -74.0815   25.0980  -78.7508 C.2       7 UNK         0.5089 
     39 O         -73.0456   25.2560  -79.3977 O.2       7 UNK        -0.5125 
     40 CA        -75.3752   25.7831  -79.2343 C.3       6 UNK         0.0408 
     41 CB        -76.0365   24.9521  -80.3450 C.3       6 UNK        -0.1791 
     42 N         -76.3424   26.0058  -78.1561 N.am      6 UNK        -0.4762 
     43 C         -76.2216   26.9688  -77.2269 C.2       6 UNK         0.5007 
     44 O         -75.3310   27.8171  -77.2495 O.2       6 UNK        -0.5032 
     45 CA        -77.2274   26.9576  -76.0511 C.3       5 UNK         0.0783 
     46 C46       -78.3698   27.9846  -76.2568 C.3       11 UNK        -0.0857 
     47 S47       -77.8761   29.7010  -75.8731 S.3       11 UNK        -0.2512 
     48 C48       -78.6305   29.9658  -74.2354 C.3       11 UNK         0.0225 
     49 N         -77.7555   25.6139  -75.7719 N.am      5 UNK        -0.4615 
     50 C         -76.9979   24.5767  -75.3813 C.2       4 UNK         0.5053 
     51 O         -75.8045   24.6930  -75.1101 O.2       4 UNK        -0.5105 
     52 CA        -77.6197   23.1667  -75.3483 C.3       4 UNK         0.0263 
     53 CB        -77.7079   22.6257  -73.9130 C.3       4 UNK        -0.1981 
     54 N         -78.9264   23.0607  -76.0027 N.am      4 UNK        -0.4224 
     55 C         -79.1380   23.2208  -77.3174 C.2       3 UNK         0.4895 
     56 O         -78.2400   23.4520  -78.1280 O.2       3 UNK        -0.5091 
     57 CA        -80.6000   23.1757  -77.8004 C.3       3 UNK         0.0250 
     58 CB        -80.9758   21.7504  -78.2354 C.3       3 UNK        -0.1996 
     59 N         -81.5856   23.6644  -76.8239 N.am      3 UNK        -0.4254 
     60 C         -81.5827   24.8831  -76.2617 C.2       2 UNK         0.5004 
     61 O         -80.6928   25.7092  -76.4655 O.2       2 UNK        -0.5226 
     62 CA        -82.7394   25.2369  -75.3024 C.3       2 UNK         0.0269 
     63 CB        -83.9067   24.2284  -75.3233 C.3       2 UNK        -0.1926 
     64 N         -82.2459   25.3621  -73.9294 N.am      2 UNK        -0.4687 
     65 C         -81.5940   26.4273  -73.4408 C.2       1 UNK         0.5165 
     66 O         -81.4476   27.4884  -74.0471 O.2       1 UNK        -0.5079 
     67 H67       -84.0409   26.6229  -68.7488 H         1 UNK         0.0900 
     68 H68       -85.0033   25.9323  -70.0583 H         1 UNK         0.0900 
     69 H69       -83.6879   24.9991  -69.3421 H         1 UNK         0.0900 
     70 H70       -81.8696   24.9563  -70.6294 H         1 UNK         0.2959 
     71 H71       -80.6124   27.2504  -71.7403 H         1 UNK         0.1079 
     72 H72       -80.1801   24.2408  -72.0562 H         1 UNK         0.0837 
     73 H73       -79.2419   25.3550  -72.9936 H         1 UNK         0.0837 
     74 H74       -76.2976   25.6963  -70.8430 H         1 UNK         0.0685 
     75 H75       -76.9943   25.4065  -72.4076 H         1 UNK         0.0685 
     76 H76       -78.5168   27.3908  -73.3887 H         1 UNK         0.1434 
     77 H77       -76.8524   31.2532  -72.6142 H         1 UNK         0.1329 
     78 H78       -75.6169   27.8871  -70.2663 H         1 UNK         0.1335 
     79 H79       -75.5431   31.5920  -70.5696 H         1 UNK         0.0680 
     80 H80       -75.1956   30.2480  -69.5131 H         1 UNK         0.0680 
     81 H81       -74.2711   30.7517  -73.4526 H         1 UNK         0.1032 
     82 H82       -74.2409   32.2796  -72.6235 H         1 UNK         0.1032 
     83 H83       -72.5512   32.0822  -74.4683 H         1 UNK         0.0461 
     84 H84       -72.7238   34.2781  -73.4771 H         1 UNK         0.3453 
     85 H85       -71.4391   34.7940  -72.4174 H         1 UNK         0.3453 
     86 H86       -71.8074   29.6737  -73.1318 H         1 UNK         0.2984 
     87 H87       -69.4380   28.7876  -75.5486 H         1 UNK         0.0554 
     88 H88       -67.8577   29.7659  -73.8875 H         1 UNK         0.0847 
     89 H89       -68.0040   28.0318  -73.6610 H         1 UNK         0.0847 
     90 H90       -68.8276   29.1414  -72.5625 H         1 UNK         0.0847 
     91 H91       -70.5120   27.4465  -73.2350 H         1 UNK         0.3141 
     92 H92       -71.9309   25.7285  -73.5577 H         1 UNK         0.0743 
     93 H93       -74.3633   27.4954  -74.1992 H         1 UNK         0.0784 
     94 H94       -74.3527   26.1509  -73.0599 H         1 UNK         0.0784 
     95 H95       -73.3959   27.5859  -72.7360 H         1 UNK         0.0784 
     96 H96       -74.0535   25.2759  -75.3519 H         1 UNK         0.3213 
     97 H97       -72.3187   23.3587  -77.8131 H         1 UNK         0.0855 
     98 H98       -74.2293   22.5468  -75.5549 H         1 UNK         0.0814 
     99 H99       -72.6983   21.7814  -75.9468 H         1 UNK         0.0814 
    100 H100      -74.0312   21.6961  -77.0868 H         1 UNK         0.0814 
    101 H101      -75.0413   24.3074  -77.1506 H         1 UNK         0.3105 
    102 H102      -75.0991   26.7510  -79.6582 H         1 UNK         0.0547 
    103 H103      -75.3571   24.8185  -81.1879 H         1 UNK         0.0837 
    104 H104      -76.3175   23.9584  -79.9944 H         1 UNK         0.0837 
    105 H105      -76.9336   25.4395  -80.7268 H         1 UNK         0.0837 
    106 H106      -77.0972   25.3327  -78.0767 H         1 UNK         0.3020 
    107 H107      -76.6557   27.2522  -75.1689 H         1 UNK         0.1245 
    108 H108      -79.2217   27.7331  -75.6254 H         1 UNK         0.0781 
    109 H109      -78.7545   27.9449  -77.2777 H         1 UNK         0.0781 
    110 H110      -79.6371   29.5463  -74.2087 H         1 UNK         0.0836 
    111 H111      -78.7536   31.0391  -74.0832 H         1 UNK         0.0836 
    112 H112      -78.7332   25.4634  -76.0033 H         1 UNK         0.3022 
    113 H113      -76.9309   22.5210  -75.8974 H         1 UNK         0.0747 
    114 H114      -77.9798   21.5700  -73.9068 H         1 UNK         0.0793 
    115 H115      -76.7486   22.7117  -73.4001 H         1 UNK         0.0793 
    116 H116      -78.4438   23.1609  -73.3179 H         1 UNK         0.0793 
    117 H117      -79.7237   22.8793  -75.4109 H         1 UNK         0.3047 
    118 H118      -80.6646   23.8264  -78.6751 H         1 UNK         0.0822 
    119 H119      -81.9671   21.7209  -78.6881 H         1 UNK         0.0807 
    120 H120      -80.9685   21.0554  -77.3947 H         1 UNK         0.0807 
    121 H121      -80.2726   21.3706  -78.9782 H         1 UNK         0.0807 
    122 H122      -82.3473   23.0395  -76.6018 H         1 UNK         0.2946 
    123 H123      -83.1281   26.2045  -75.6289 H         1 UNK         0.1144 
    124 H124      -84.7276   24.5737  -74.6941 H         1 UNK         0.0793 
    125 H125      -83.6111   23.2429  -74.9612 H         1 UNK         0.0793 
    126 H126      -84.3111   24.1110  -76.3299 H         1 UNK         0.0793 
    127 H127      -82.3302   24.5444  -73.3433 H         1 UNK         0.2896 
@<TRIPOS>BOND
     1    1    2 1    
     2    1   67 1    
     3    1   68 1    
     4    1   69 1    
     5    2    3 2    
     6    2    4 am   BACKBONE|DICT|INTERRES
     7    4    5 1    
     8    4   70 1    
     9    5    6 1    
    10    5   65 1    
    11    5   71 1    
    12    6    7 1    
    13    6   72 1    
    14    6   73 1    
    15    7    8 1    
    16    8    9 1    
    17    8   74 1    
    18    8   75 1    
    19    9   10 ar   
    20    9   14 ar   
    21   10   11 ar   
    22   10   76 1    
    23   11   12 ar   
    24   11   48 1    
    25   12   13 ar   
    26   12   77 1    
    27   13   14 ar   
    28   13   15 1    
    29   14   78 1    
    30   15   16 1    
    31   15   79 1    
    32   15   80 1    
    33   16   17 1    
    34   17   18 1    
    35   17   81 1    
    36   17   82 1    
    37   18   19 1    
    38   18   22 1    
    39   18   83 1    
    40   19   20 am   BACKBONE|DICT|INTERRES
    41   19   21 2    
    42   20   84 1    
    43   20   85 1    
    44   22   23 am   BACKBONE|DICT|INTERRES
    45   22   86 1    
    46   23   24 2    
    47   23   25 1    
    48   25   26 1    
    49   25   27 1    
    50   25   87 1    
    51   26   88 1    
    52   26   89 1    
    53   26   90 1    
    54   27   28 am   BACKBONE|DICT|INTERRES
    55   27   91 1    
    56   28   29 2    
    57   28   30 1    
    58   30   31 1    
    59   30   32 1    
    60   30   92 1    
    61   31   93 1    
    62   31   94 1    
    63   31   95 1    
    64   32   33 am   BACKBONE|DICT|INTERRES
    65   32   96 1    
    66   33   34 2    
    67   33   35 1    
    68   35   36 1    
    69   35   37 1    
    70   35   97 1    
    71   36   98 1    
    72   36   99 1    
    73   36  100 1    
    74   37   38 am   BACKBONE|DICT|INTERRES
    75   37  101 1    
    76   38   39 2    
    77   38   40 1    
    78   40   41 1    
    79   40   42 1    
    80   40  102 1    
    81   41  103 1    
    82   41  104 1    
    83   41  105 1    
    84   42   43 am   BACKBONE|DICT|INTERRES
    85   42  106 1    
    86   43   44 2    
    87   43   45 1    
    88   45   46 1    
    89   45   49 1    
    90   45  107 1    
    91   46   47 1    
    92   46  108 1    
    93   46  109 1    
    94   47   48 1    
    95   48  110 1    
    96   48  111 1    
    97   49   50 am   BACKBONE|DICT|INTERRES
    98   49  112 1    
    99   50   51 2    
   100   50   52 1    
   101   52   53 1    
   102   52   54 1    
   103   52  113 1    
   104   53  114 1    
   105   53  115 1    
   106   53  116 1    
   107   54   55 am   BACKBONE|DICT|INTERRES
   108   54  117 1    
   109   55   56 2    
   110   55   57 1    
   111   57   58 1    
   112   57   59 1    
   113   57  118 1    
   114   58  119 1    
   115   58  120 1    
   116   58  121 1    
   117   59   60 am   BACKBONE|DICT|INTERRES
   118   59  122 1    
   119   60   61 2    
   120   60   62 1    
   121   62   63 1    
   122   62   64 1    
   123   62  123 1    
   124   63  124 1    
   125   63  125 1    
   126   63  126 1    
   127   64   65 am   BACKBONE|DICT|INTERRES
   128   64  127 1    
   129   65   66 2    
@<TRIPOS>SUBSTRUCTURE
     1 UNK         1 GROUP             0       ****    0 ROOT    
