@<TRIPOS>MOLECULE
3R135
127   129    1
SMALL
USER_CHARGES


@<TRIPOS>ATOM
      1 CA        -76.3879   28.1529  -68.0366 C.3       0 UNK        -0.1998 
      2 C         -77.7421   27.5300  -68.3405 C.2       0 UNK         0.4909 
      3 O         -78.3464   26.9163  -67.4600 O.2       0 UNK        -0.5240 
      4 N         -78.2194   27.6827  -69.5802 N.am      1 UNK        -0.4739 
      5 CA        -79.4543   27.0700  -70.0791 C.3       1 UNK         0.0864 
      6 C6        -80.0737   27.8670  -71.2515 C.3       11 UNK        -0.0881 
      7 S7        -80.6446   29.5178  -70.7399 S.3       11 UNK        -0.2682 
      8 C8        -81.5814   30.0221  -72.2208 C.3       11 UNK         0.0289 
      9 C9        -80.6973   30.1488  -73.4560 C.ar      11 UNK        -0.0687 
     10 C10       -80.9799   29.4142  -74.6137 C.ar      11 UNK        -0.0823 
     11 C11       -80.1823   29.5430  -75.7572 C.ar      11 UNK        -0.0830 
     12 C12       -79.0941   30.4246  -75.7258 C.ar      11 UNK        -0.1021 
     13 C13       -78.7805   31.1358  -74.5662 C.ar      11 UNK        -0.0753 
     14 C14       -79.5971   31.0098  -73.4415 C.ar      11 UNK        -0.0933 
     15 C15       -77.5311   32.0043  -74.5125 C.3       11 UNK         0.0166 
     16 S16       -76.0200   31.0500  -74.8793 S.3       11 UNK        -0.2615 
     17 C17       -76.2194   29.5877  -73.7957 C.3       11 UNK        -0.0865 
     18 CA        -74.9017   29.1371  -73.1178 C.3       10 UNK         0.0862 
     19 C         -75.1147   27.9022  -72.1934 C.2       10 UNK         0.5551 
     20 N         -74.1643   26.9820  -72.0787 N.am      10 UNK        -0.7319 
     21 O         -76.1612   27.7713  -71.5627 O.2       10 UNK        -0.5018 
     22 N         -73.8324   28.9235  -74.1028 N.am      10 UNK        -0.4509 
     23 C         -72.6010   29.4433  -74.0318 C.2       10 UNK         0.4899 
     24 O         -72.2358   30.2310  -73.1573 O.2       10 UNK        -0.4839 
     25 CA        -71.6044   28.9888  -75.1185 C.3       9 UNK         0.0222 
     26 CB        -70.1328   29.2284  -74.7196 C.3       9 UNK        -0.1966 
     27 N         -71.8027   27.5961  -75.5425 N.am      9 UNK        -0.4218 
     28 C         -71.7912   26.5026  -74.7607 C.2       9 UNK         0.5020 
     29 O         -71.5759   26.5411  -73.5481 O.2       9 UNK        -0.5274 
     30 CA        -72.1101   25.1468  -75.4183 C.3       8 UNK         0.0270 
     31 CB        -73.0529   24.3032  -74.5422 C.3       8 UNK        -0.1976 
     32 N         -72.7128   25.3133  -76.7436 N.am      8 UNK        -0.4313 
     33 C         -72.0745   25.1277  -77.9077 C.2       8 UNK         0.5041 
     34 O         -70.9319   24.6777  -77.9985 O.2       8 UNK        -0.5577 
     35 CA        -72.8119   25.5523  -79.1926 C.3       7 UNK         0.0284 
     36 CB        -73.4088   24.3310  -79.9091 C.3       7 UNK        -0.1958 
     37 N         -73.8561   26.5587  -78.9620 N.am      7 UNK        -0.4454 
     38 C         -73.6093   27.8197  -78.5728 C.2       7 UNK         0.5089 
     39 O         -72.4738   28.2595  -78.3942 O.2       7 UNK        -0.5125 
     40 CA        -74.8109   28.7350  -78.2759 C.3       6 UNK         0.0408 
     41 CB        -75.0787   29.6743  -79.4612 C.3       6 UNK        -0.1791 
     42 N         -76.0443   28.0217  -77.9403 N.am      6 UNK        -0.4762 
     43 C         -76.2215   27.2221  -76.8819 C.2       6 UNK         0.5007 
     44 O         -75.3233   26.9776  -76.0682 O.2       6 UNK        -0.5032 
     45 CA        -77.6133   26.5618  -76.7101 C.3       5 UNK         0.0783 
     46 C46       -78.6398   26.7879  -77.8658 C.3       11 UNK        -0.0857 
     47 S47       -79.1696   28.5041  -78.1904 S.3       11 UNK        -0.2512 
     48 C48       -80.5494   28.7547  -77.0163 C.3       11 UNK         0.0225 
     49 N         -77.4573   25.1274  -76.4405 N.am      5 UNK        -0.4615 
     50 C         -76.9297   24.2276  -77.2891 C.2       4 UNK         0.5053 
     51 O         -76.4466   24.5312  -78.3804 O.2       4 UNK        -0.5105 
     52 CA        -76.9388   22.7392  -76.8866 C.3       4 UNK         0.0263 
     53 CB        -75.5201   22.2555  -76.5544 C.3       4 UNK        -0.1981 
     54 N         -77.8099   22.4349  -75.7529 N.am      4 UNK        -0.4224 
     55 C         -79.1493   22.4439  -75.7726 C.2       3 UNK         0.4895 
     56 O         -79.8216   22.6024  -76.7917 O.2       3 UNK        -0.5091 
     57 CA        -79.8570   22.2777  -74.4139 C.3       3 UNK         0.0250 
     58 CB        -80.3380   20.8289  -74.2322 C.3       3 UNK        -0.1996 
     59 N         -79.0356   22.6646  -73.2567 N.am      3 UNK        -0.4254 
     60 C         -78.5588   23.8978  -73.0332 C.2       2 UNK         0.5004 
     61 O         -78.7227   24.8471  -73.8040 O.2       2 UNK        -0.5226 
     62 CA        -77.7040   24.0923  -71.7703 C.3       2 UNK         0.0269 
     63 CB        -76.2109   24.0740  -72.1350 C.3       2 UNK        -0.1926 
     64 N         -78.0262   25.3622  -71.1190 N.am      2 UNK        -0.4687 
     65 C         -79.2002   25.6194  -70.5224 C.2       1 UNK         0.5165 
     66 O         -80.0693   24.7671  -70.3299 O.2       1 UNK        -0.5079 
     67 H67       -76.4715   28.8452  -67.1994 H         1 UNK         0.0900 
     68 H68       -75.9918   28.7012  -68.8913 H         1 UNK         0.0900 
     69 H69       -75.6702   27.3777  -67.7699 H         1 UNK         0.0900 
     70 H70       -77.6325   28.1229  -70.2816 H         1 UNK         0.2959 
     71 H71       -80.1861   27.0350  -69.2686 H         1 UNK         0.1079 
     72 H72       -79.3544   27.9781  -72.0663 H         1 UNK         0.0837 
     73 H73       -80.9302   27.3325  -71.6684 H         1 UNK         0.0837 
     74 H74       -82.3912   29.3105  -72.3893 H         1 UNK         0.0685 
     75 H75       -82.0541   30.9857  -72.0262 H         1 UNK         0.0685 
     76 H76       -81.8318   28.7479  -74.6290 H         1 UNK         0.1434 
     77 H77       -78.4614   30.5522  -76.5925 H         1 UNK         0.1329 
     78 H78       -79.3661   31.5640  -72.5419 H         1 UNK         0.1335 
     79 H79       -77.4211   32.4686  -73.5312 H         1 UNK         0.0680 
     80 H80       -77.6248   32.8174  -75.2335 H         1 UNK         0.0680 
     81 H81       -76.6470   28.7771  -74.3859 H         1 UNK         0.1032 
     82 H82       -76.9579   29.8168  -73.0256 H         1 UNK         0.1032 
     83 H83       -74.6121   29.9420  -72.4406 H         1 UNK         0.0461 
     84 H84       -73.2890   27.0628  -72.5833 H         1 UNK         0.3453 
     85 H85       -74.3124   26.2015  -71.4624 H         1 UNK         0.3453 
     86 H86       -74.0530   28.2639  -74.8391 H         1 UNK         0.2984 
     87 H87       -71.8132   29.6055  -75.9938 H         1 UNK         0.0554 
     88 H88       -69.4515   28.9191  -75.5121 H         1 UNK         0.0847 
     89 H89       -69.8654   28.6819  -73.8146 H         1 UNK         0.0847 
     90 H90       -69.9450   30.2856  -74.5284 H         1 UNK         0.0847 
     91 H91       -71.9832   27.4781  -76.5335 H         1 UNK         0.3141 
     92 H92       -71.1605   24.6135  -75.4939 H         1 UNK         0.0743 
     93 H93       -74.0543   24.7329  -74.4961 H         1 UNK         0.0784 
     94 H94       -73.1270   23.2885  -74.9297 H         1 UNK         0.0784 
     95 H95       -72.6855   24.2170  -73.5187 H         1 UNK         0.0784 
     96 H96       -73.6474   25.7075  -76.7589 H         1 UNK         0.3213 
     97 H97       -72.0679   25.9978  -79.8569 H         1 UNK         0.0855 
     98 H98       -74.1258   23.8025  -79.2826 H         1 UNK         0.0814 
     99 H99       -72.6272   23.6180  -80.1748 H         1 UNK         0.0814 
    100 H100      -73.9136   24.6162  -80.8322 H         1 UNK         0.0814 
    101 H101      -74.8174   26.2533  -79.0489 H         1 UNK         0.3105 
    102 H102      -74.5442   29.3471  -77.4114 H         1 UNK         0.0547 
    103 H103      -75.3809   29.1239  -80.3530 H         1 UNK         0.0837 
    104 H104      -75.8633   30.3942  -79.2272 H         1 UNK         0.0837 
    105 H105      -74.1847   30.2449  -79.7171 H         1 UNK         0.0837 
    106 H106      -76.8425   28.1842  -78.5410 H         1 UNK         0.3020 
    107 H107      -78.0359   26.9962  -75.8022 H         1 UNK         0.1245 
    108 H108      -78.2442   26.3969  -78.8045 H         1 UNK         0.0781 
    109 H109      -79.5353   26.1950  -77.6730 H         1 UNK         0.0781 
    110 H110      -81.3372   29.3021  -77.5351 H         1 UNK         0.0836 
    111 H111      -80.9793   27.7898  -76.7439 H         1 UNK         0.0836 
    112 H112      -77.8197   24.8187  -75.5431 H         1 UNK         0.3022 
    113 H113      -77.2965   22.1791  -77.7532 H         1 UNK         0.0747 
    114 H114      -75.4872   21.1711  -76.4472 H         1 UNK         0.0793 
    115 H115      -74.8093   22.5241  -77.3366 H         1 UNK         0.0793 
    116 H116      -75.1684   22.6932  -75.6225 H         1 UNK         0.0793 
    117 H117      -77.3563   22.2775  -74.8656 H         1 UNK         0.3047 
    118 H118      -80.7324   22.9307  -74.4276 H         1 UNK         0.0822 
    119 H119      -80.9251   20.7160  -73.3206 H         1 UNK         0.0807 
    120 H120      -79.5033   20.1283  -74.1849 H         1 UNK         0.0807 
    121 H121      -80.9742   20.5214  -75.0637 H         1 UNK         0.0807 
    122 H122      -78.8484   21.9390  -72.5789 H         1 UNK         0.2946 
    123 H123      -77.9079   23.2831  -71.0653 H         1 UNK         0.1144 
    124 H124      -75.5854   24.2153  -71.2536 H         1 UNK         0.0793 
    125 H125      -75.9649   24.8576  -72.8531 H         1 UNK         0.0793 
    126 H126      -75.9265   23.1211  -72.5829 H         1 UNK         0.0793 
    127 H127      -77.3786   26.1299  -71.2615 H         1 UNK         0.2896 
@<TRIPOS>BOND
     1    1    2 1    
     2    1   67 1    
     3    1   68 1    
     4    1   69 1    
     5    2    3 2    
     6    2    4 am   BACKBONE|DICT|INTERRES
     7    4    5 1    
     8    4   70 1    
     9    5    6 1    
    10    5   65 1    
    11    5   71 1    
    12    6    7 1    
    13    6   72 1    
    14    6   73 1    
    15    7    8 1    
    16    8    9 1    
    17    8   74 1    
    18    8   75 1    
    19    9   10 ar   
    20    9   14 ar   
    21   10   11 ar   
    22   10   76 1    
    23   11   12 ar   
    24   11   48 1    
    25   12   13 ar   
    26   12   77 1    
    27   13   14 ar   
    28   13   15 1    
    29   14   78 1    
    30   15   16 1    
    31   15   79 1    
    32   15   80 1    
    33   16   17 1    
    34   17   18 1    
    35   17   81 1    
    36   17   82 1    
    37   18   19 1    
    38   18   22 1    
    39   18   83 1    
    40   19   20 am   BACKBONE|DICT|INTERRES
    41   19   21 2    
    42   20   84 1    
    43   20   85 1    
    44   22   23 am   BACKBONE|DICT|INTERRES
    45   22   86 1    
    46   23   24 2    
    47   23   25 1    
    48   25   26 1    
    49   25   27 1    
    50   25   87 1    
    51   26   88 1    
    52   26   89 1    
    53   26   90 1    
    54   27   28 am   BACKBONE|DICT|INTERRES
    55   27   91 1    
    56   28   29 2    
    57   28   30 1    
    58   30   31 1    
    59   30   32 1    
    60   30   92 1    
    61   31   93 1    
    62   31   94 1    
    63   31   95 1    
    64   32   33 am   BACKBONE|DICT|INTERRES
    65   32   96 1    
    66   33   34 2    
    67   33   35 1    
    68   35   36 1    
    69   35   37 1    
    70   35   97 1    
    71   36   98 1    
    72   36   99 1    
    73   36  100 1    
    74   37   38 am   BACKBONE|DICT|INTERRES
    75   37  101 1    
    76   38   39 2    
    77   38   40 1    
    78   40   41 1    
    79   40   42 1    
    80   40  102 1    
    81   41  103 1    
    82   41  104 1    
    83   41  105 1    
    84   42   43 am   BACKBONE|DICT|INTERRES
    85   42  106 1    
    86   43   44 2    
    87   43   45 1    
    88   45   46 1    
    89   45   49 1    
    90   45  107 1    
    91   46   47 1    
    92   46  108 1    
    93   46  109 1    
    94   47   48 1    
    95   48  110 1    
    96   48  111 1    
    97   49   50 am   BACKBONE|DICT|INTERRES
    98   49  112 1    
    99   50   51 2    
   100   50   52 1    
   101   52   53 1    
   102   52   54 1    
   103   52  113 1    
   104   53  114 1    
   105   53  115 1    
   106   53  116 1    
   107   54   55 am   BACKBONE|DICT|INTERRES
   108   54  117 1    
   109   55   56 2    
   110   55   57 1    
   111   57   58 1    
   112   57   59 1    
   113   57  118 1    
   114   58  119 1    
   115   58  120 1    
   116   58  121 1    
   117   59   60 am   BACKBONE|DICT|INTERRES
   118   59  122 1    
   119   60   61 2    
   120   60   62 1    
   121   62   63 1    
   122   62   64 1    
   123   62  123 1    
   124   63  124 1    
   125   63  125 1    
   126   63  126 1    
   127   64   65 am   BACKBONE|DICT|INTERRES
   128   64  127 1    
   129   65   66 2    
@<TRIPOS>SUBSTRUCTURE
     1 UNK         1 GROUP             0       ****    0 ROOT    
