@<TRIPOS>MOLECULE
3R135
127   129    1
SMALL
USER_CHARGES


@<TRIPOS>ATOM
      1 CA        -81.7119   24.3951  -71.7076 C.3       0 UNK        -0.1998 
      2 C         -82.1052   25.5585  -72.6038 C.2       0 UNK         0.4909 
      3 O         -83.0860   25.4620  -73.3430 O.2       0 UNK        -0.5240 
      4 N         -81.3438   26.6586  -72.5539 N.am      1 UNK        -0.4739 
      5 CA        -81.5479   27.8835  -73.3419 C.3       1 UNK         0.0864 
      6 C6        -80.9511   29.1325  -72.6385 C.3       11 UNK        -0.0881 
      7 S7        -81.5795   29.3374  -70.9332 S.3       11 UNK        -0.2682 
      8 C8        -80.2611   30.3179  -70.1312 C.3       11 UNK         0.0289 
      9 C9        -78.8632   29.7107  -70.2377 C.ar      11 UNK        -0.0687 
     10 C10       -78.6520   28.3355  -70.0927 C.ar      11 UNK        -0.0823 
     11 C11       -77.3759   27.7926  -70.2624 C.ar      11 UNK        -0.0830 
     12 C12       -76.2917   28.6435  -70.4959 C.ar      11 UNK        -0.1021 
     13 C13       -76.4793   30.0252  -70.6404 C.ar      11 UNK        -0.0753 
     14 C14       -77.7720   30.5426  -70.5078 C.ar      11 UNK        -0.0933 
     15 C15       -75.3475   31.0077  -70.9713 C.3       11 UNK         0.0166 
     16 S16       -73.6697   30.3122  -71.2042 S.3       11 UNK        -0.2615 
     17 C17       -73.8904   29.2605  -72.6820 C.3       11 UNK        -0.0865 
     18 CA        -73.3613   29.8346  -74.0206 C.3       10 UNK         0.0862 
     19 C         -74.2364   30.9940  -74.5687 C.2       10 UNK         0.5551 
     20 N         -75.4482   30.6833  -75.0039 N.am      10 UNK        -0.7319 
     21 O         -73.8368   32.1565  -74.5997 O.2       10 UNK        -0.5018 
     22 N         -71.9358   30.1815  -73.9405 N.am      10 UNK        -0.4509 
     23 C         -71.0198   30.1199  -74.9182 C.2       10 UNK         0.4899 
     24 O         -69.9070   30.6251  -74.7709 O.2       10 UNK        -0.4839 
     25 CA        -71.3386   29.3626  -76.2343 C.3       9 UNK         0.0222 
     26 CB        -70.2278   29.5183  -77.2941 C.3       9 UNK        -0.1966 
     27 N         -71.6300   27.9358  -76.0278 N.am      9 UNK        -0.4218 
     28 C         -70.8994   27.0384  -75.3452 C.2       9 UNK         0.5020 
     29 O         -69.7977   27.2753  -74.8477 O.2       9 UNK        -0.5274 
     30 CA        -71.5004   25.6320  -75.1544 C.3       8 UNK         0.0270 
     31 CB        -72.1244   25.5146  -73.7533 C.3       8 UNK        -0.1976 
     32 N         -72.5011   25.2522  -76.1561 N.am      8 UNK        -0.4313 
     33 C         -72.2511   25.0725  -77.4607 C.2       8 UNK         0.5041 
     34 O         -71.1304   25.1690  -77.9625 O.2       8 UNK        -0.5577 
     35 CA        -73.4511   24.7473  -78.3673 C.3       7 UNK         0.0284 
     36 CB        -73.6705   23.2281  -78.4403 C.3       7 UNK        -0.1958 
     37 N         -74.7042   25.3983  -77.9711 N.am      7 UNK        -0.4454 
     38 C         -74.9061   26.7221  -77.8878 C.2       7 UNK         0.5089 
     39 O         -74.0304   27.5679  -78.0718 O.2       7 UNK        -0.5125 
     40 CA        -76.3188   27.1700  -77.4843 C.3       6 UNK         0.0408 
     41 CB        -77.3216   26.9846  -78.6348 C.3       6 UNK        -0.1791 
     42 N         -76.7588   26.4379  -76.2954 N.am      6 UNK        -0.4762 
     43 C         -76.4064   26.7919  -75.0512 C.2       6 UNK         0.5007 
     44 O         -75.8269   27.8454  -74.7999 O.2       6 UNK        -0.5032 
     45 CA        -76.7139   25.8245  -73.8898 C.3       5 UNK         0.0783 
     46 C46       -77.8931   26.3530  -73.0464 C.3       11 UNK        -0.0857 
     47 S47       -78.1720   25.4059  -71.5072 S.3       11 UNK        -0.2512 
     48 C48       -77.1679   26.2828  -70.2525 C.3       11 UNK         0.0225 
     49 N         -76.9285   24.4503  -74.3512 N.am      5 UNK        -0.4615 
     50 C         -75.9468   23.6448  -74.7770 C.2       4 UNK         0.5053 
     51 O         -74.7642   23.9800  -74.8263 O.2       4 UNK        -0.5105 
     52 CA        -76.3567   22.2542  -75.2903 C.3       4 UNK         0.0263 
     53 CB        -76.4653   21.2621  -74.1220 C.3       4 UNK        -0.1981 
     54 N         -77.6113   22.2590  -76.0482 N.am      4 UNK        -0.4224 
     55 C         -77.8429   22.9882  -77.1487 C.2       3 UNK         0.4895 
     56 O         -77.0048   23.7311  -77.6613 O.2       3 UNK        -0.5091 
     57 CA        -79.2486   22.9192  -77.7708 C.3       3 UNK         0.0250 
     58 CB        -80.1408   21.7912  -77.2020 C.3       3 UNK        -0.1996 
     59 N         -79.9407   24.2120  -77.6881 N.am      3 UNK        -0.4254 
     60 C         -80.2302   24.9041  -76.5749 C.2       2 UNK         0.5004 
     61 O         -79.8846   24.5534  -75.4424 O.2       2 UNK        -0.5226 
     62 CA        -81.0480   26.1964  -76.7695 C.3       2 UNK         0.0269 
     63 CB        -82.2733   25.9721  -77.6769 C.3       2 UNK        -0.1926 
     64 N         -81.5241   26.6843  -75.4765 N.am      2 UNK        -0.4687 
     65 C         -81.0075   27.7014  -74.7803 C.2       1 UNK         0.5165 
     66 O         -80.1232   28.4418  -75.2144 O.2       1 UNK        -0.5079 
     67 H67       -82.5999   23.9100  -71.3033 H         1 UNK         0.0900 
     68 H68       -81.0983   24.7234  -70.8690 H         1 UNK         0.0900 
     69 H69       -81.1478   23.6585  -72.2794 H         1 UNK         0.0900 
     70 H70       -80.5336   26.6653  -71.9508 H         1 UNK         0.2959 
     71 H71       -82.6231   28.0526  -73.4365 H         1 UNK         0.1079 
     72 H72       -81.1920   30.0376  -73.1990 H         1 UNK         0.0837 
     73 H73       -79.8623   29.0668  -72.6236 H         1 UNK         0.0837 
     74 H74       -80.5086   30.4382  -69.0759 H         1 UNK         0.0685 
     75 H75       -80.2749   31.3181  -70.5670 H         1 UNK         0.0685 
     76 H76       -79.4882   27.6789  -69.8966 H         1 UNK         0.1434 
     77 H77       -75.3075   28.2112  -70.5957 H         1 UNK         0.1329 
     78 H78       -77.9302   31.6061  -70.6269 H         1 UNK         0.1335 
     79 H79       -75.2903   31.7448  -70.1692 H         1 UNK         0.0680 
     80 H80       -75.6150   31.5598  -71.8735 H         1 UNK         0.0680 
     81 H81       -73.3861   28.3146  -72.4815 H         1 UNK         0.1032 
     82 H82       -74.9431   29.0036  -72.7839 H         1 UNK         0.1032 
     83 H83       -73.4834   29.0290  -74.7397 H         1 UNK         0.0461 
     84 H84       -76.0518   31.4038  -75.3656 H         1 UNK         0.3453 
     85 H85       -75.7580   29.7150  -74.9809 H         1 UNK         0.3453 
     86 H86       -71.6855   30.6715  -73.0944 H         1 UNK         0.2984 
     87 H87       -72.2418   29.8110  -76.6502 H         1 UNK         0.0554 
     88 H88       -70.0414   30.5701  -77.5145 H         1 UNK         0.0847 
     89 H89       -70.5054   29.0352  -78.2310 H         1 UNK         0.0847 
     90 H90       -69.2854   29.0824  -76.9604 H         1 UNK         0.0847 
     91 H91       -72.5015   27.6146  -76.4331 H         1 UNK         0.3141 
     92 H92       -70.6766   24.9185  -75.2222 H         1 UNK         0.0743 
     93 H93       -71.4203   25.8233  -72.9792 H         1 UNK         0.0784 
     94 H94       -73.0140   26.1379  -73.6561 H         1 UNK         0.0784 
     95 H95       -72.4111   24.4860  -73.5336 H         1 UNK         0.0784 
     96 H96       -73.4343   25.0435  -75.8102 H         1 UNK         0.3213 
     97 H97       -73.2064   25.1054  -79.3694 H         1 UNK         0.0855 
     98 H98       -73.9226   22.8126  -77.4646 H         1 UNK         0.0814 
     99 H99       -72.7705   22.7198  -78.7889 H         1 UNK         0.0814 
    100 H100      -74.4750   22.9742  -79.1310 H         1 UNK         0.0814 
    101 H101      -75.4996   24.7832  -77.8084 H         1 UNK         0.3105 
    102 H102      -76.2807   28.2386  -77.2607 H         1 UNK         0.0547 
    103 H103      -76.9951   27.5290  -79.5218 H         1 UNK         0.0837 
    104 H104      -77.4388   25.9407  -78.9232 H         1 UNK         0.0837 
    105 H105      -78.3033   27.3718  -78.3656 H         1 UNK         0.0837 
    106 H106      -77.1873   25.5329  -76.4438 H         1 UNK         0.3020 
    107 H107      -75.8261   25.8280  -73.2530 H         1 UNK         0.1245 
    108 H108      -78.8064   26.2936  -73.6363 H         1 UNK         0.0781 
    109 H109      -77.7653   27.4107  -72.8132 H         1 UNK         0.0781 
    110 H110      -77.4192   25.8948  -69.2645 H         1 UNK         0.0836 
    111 H111      -76.1185   26.0353  -70.4194 H         1 UNK         0.0836 
    112 H112      -77.8898   24.1338  -74.3922 H         1 UNK         0.3022 
    113 H113      -75.5701   21.9054  -75.9615 H         1 UNK         0.0747 
    114 H114      -75.5342   21.2257  -73.5544 H         1 UNK         0.0793 
    115 H115      -76.6658   20.2508  -74.4763 H         1 UNK         0.0793 
    116 H116      -77.2594   21.5398  -73.4275 H         1 UNK         0.0793 
    117 H117      -78.3672   21.6988  -75.6819 H         1 UNK         0.3047 
    118 H118      -79.0959   22.7145  -78.8316 H         1 UNK         0.0822 
    119 H119      -81.0867   21.7372  -77.7412 H         1 UNK         0.0807 
    120 H120      -80.3773   21.9376  -76.1473 H         1 UNK         0.0807 
    121 H121      -79.6624   20.8163  -77.3068 H         1 UNK         0.0807 
    122 H122      -80.2351   24.5967  -78.5746 H         1 UNK         0.2946 
    123 H123      -80.3947   26.9375  -77.2340 H         1 UNK         0.1144 
    124 H124      -81.9806   25.7268  -78.6982 H         1 UNK         0.0793 
    125 H125      -82.8896   26.8697  -77.7346 H         1 UNK         0.0793 
    126 H126      -82.9037   25.1607  -77.3100 H         1 UNK         0.0793 
    127 H127      -82.1817   26.0846  -74.9863 H         1 UNK         0.2896 
@<TRIPOS>BOND
     1    1    2 1    
     2    1   67 1    
     3    1   68 1    
     4    1   69 1    
     5    2    3 2    
     6    2    4 am   BACKBONE|DICT|INTERRES
     7    4    5 1    
     8    4   70 1    
     9    5    6 1    
    10    5   65 1    
    11    5   71 1    
    12    6    7 1    
    13    6   72 1    
    14    6   73 1    
    15    7    8 1    
    16    8    9 1    
    17    8   74 1    
    18    8   75 1    
    19    9   10 ar   
    20    9   14 ar   
    21   10   11 ar   
    22   10   76 1    
    23   11   12 ar   
    24   11   48 1    
    25   12   13 ar   
    26   12   77 1    
    27   13   14 ar   
    28   13   15 1    
    29   14   78 1    
    30   15   16 1    
    31   15   79 1    
    32   15   80 1    
    33   16   17 1    
    34   17   18 1    
    35   17   81 1    
    36   17   82 1    
    37   18   19 1    
    38   18   22 1    
    39   18   83 1    
    40   19   20 am   BACKBONE|DICT|INTERRES
    41   19   21 2    
    42   20   84 1    
    43   20   85 1    
    44   22   23 am   BACKBONE|DICT|INTERRES
    45   22   86 1    
    46   23   24 2    
    47   23   25 1    
    48   25   26 1    
    49   25   27 1    
    50   25   87 1    
    51   26   88 1    
    52   26   89 1    
    53   26   90 1    
    54   27   28 am   BACKBONE|DICT|INTERRES
    55   27   91 1    
    56   28   29 2    
    57   28   30 1    
    58   30   31 1    
    59   30   32 1    
    60   30   92 1    
    61   31   93 1    
    62   31   94 1    
    63   31   95 1    
    64   32   33 am   BACKBONE|DICT|INTERRES
    65   32   96 1    
    66   33   34 2    
    67   33   35 1    
    68   35   36 1    
    69   35   37 1    
    70   35   97 1    
    71   36   98 1    
    72   36   99 1    
    73   36  100 1    
    74   37   38 am   BACKBONE|DICT|INTERRES
    75   37  101 1    
    76   38   39 2    
    77   38   40 1    
    78   40   41 1    
    79   40   42 1    
    80   40  102 1    
    81   41  103 1    
    82   41  104 1    
    83   41  105 1    
    84   42   43 am   BACKBONE|DICT|INTERRES
    85   42  106 1    
    86   43   44 2    
    87   43   45 1    
    88   45   46 1    
    89   45   49 1    
    90   45  107 1    
    91   46   47 1    
    92   46  108 1    
    93   46  109 1    
    94   47   48 1    
    95   48  110 1    
    96   48  111 1    
    97   49   50 am   BACKBONE|DICT|INTERRES
    98   49  112 1    
    99   50   51 2    
   100   50   52 1    
   101   52   53 1    
   102   52   54 1    
   103   52  113 1    
   104   53  114 1    
   105   53  115 1    
   106   53  116 1    
   107   54   55 am   BACKBONE|DICT|INTERRES
   108   54  117 1    
   109   55   56 2    
   110   55   57 1    
   111   57   58 1    
   112   57   59 1    
   113   57  118 1    
   114   58  119 1    
   115   58  120 1    
   116   58  121 1    
   117   59   60 am   BACKBONE|DICT|INTERRES
   118   59  122 1    
   119   60   61 2    
   120   60   62 1    
   121   62   63 1    
   122   62   64 1    
   123   62  123 1    
   124   63  124 1    
   125   63  125 1    
   126   63  126 1    
   127   64   65 am   BACKBONE|DICT|INTERRES
   128   64  127 1    
   129   65   66 2    
@<TRIPOS>SUBSTRUCTURE
     1 UNK         1 GROUP             0       ****    0 ROOT    
