@<TRIPOS>MOLECULE
3R135
127   129    1
SMALL
USER_CHARGES


@<TRIPOS>ATOM
      1 CA        -87.4645   26.9495  -72.0772 C.3       0 UNK        -0.1998 
      2 C         -86.0690   27.0112  -72.6805 C.2       0 UNK         0.4909 
      3 O         -85.9248   26.9184  -73.9004 O.2       0 UNK        -0.5240 
      4 N         -85.0415   27.1752  -71.8374 N.am      1 UNK        -0.4739 
      5 CA        -83.6291   27.1859  -72.2360 C.3       1 UNK         0.0864 
      6 C6        -82.7362   27.8402  -71.1427 C.3       11 UNK        -0.0881 
      7 S7        -81.5189   29.0098  -71.8323 S.3       11 UNK        -0.2682 
      8 C8        -79.9921   28.0125  -71.8863 C.3       11 UNK         0.0289 
      9 C9        -78.7690   28.8615  -72.2114 C.ar      11 UNK        -0.0687 
     10 C10       -78.7467   29.6687  -73.3539 C.ar      11 UNK        -0.0823 
     11 C11       -77.6371   30.4695  -73.6417 C.ar      11 UNK        -0.0830 
     12 C12       -76.5248   30.4298  -72.7953 C.ar      11 UNK        -0.1021 
     13 C13       -76.5258   29.6136  -71.6591 C.ar      11 UNK        -0.0753 
     14 C14       -77.6536   28.8392  -71.3687 C.ar      11 UNK        -0.0933 
     15 C15       -75.3228   29.5899  -70.7276 C.3       11 UNK         0.0166 
     16 S16       -74.4718   27.9834  -70.7729 S.3       11 UNK        -0.2615 
     17 C17       -72.9695   28.3666  -69.8076 C.3       11 UNK        -0.0865 
     18 CA        -71.7518   28.7346  -70.7023 C.3       10 UNK         0.0862 
     19 C         -70.5392   29.2342  -69.8644 C.2       10 UNK         0.5551 
     20 N         -69.3126   28.8167  -70.1559 N.am      10 UNK        -0.7319 
     21 O         -70.7076   30.0289  -68.9426 O.2       10 UNK        -0.5018 
     22 N         -71.4021   27.6390  -71.6250 N.am      10 UNK        -0.4509 
     23 C         -71.6394   27.6318  -72.9410 C.2       10 UNK         0.4899 
     24 O         -72.1398   28.5774  -73.5563 O.2       10 UNK        -0.4839 
     25 CA        -71.2624   26.3339  -73.6792 C.3       9 UNK         0.0222 
     26 CB        -72.0706   25.1339  -73.1516 C.3       9 UNK        -0.1966 
     27 N         -71.5185   26.4684  -75.1113 N.am      9 UNK        -0.4218 
     28 C         -70.6539   26.9597  -76.0073 C.2       9 UNK         0.5020 
     29 O         -69.4840   27.2473  -75.7425 O.2       9 UNK        -0.5274 
     30 CA        -71.1986   27.1820  -77.4326 C.3       8 UNK         0.0270 
     31 CB        -70.0881   27.3498  -78.4921 C.3       8 UNK        -0.1976 
     32 N         -72.1735   26.1646  -77.8423 N.am      8 UNK        -0.4313 
     33 C         -71.9701   24.8481  -78.0095 C.2       8 UNK         0.5041 
     34 O         -70.8757   24.2996  -77.8716 O.2       8 UNK        -0.5577 
     35 CA        -73.1900   23.9787  -78.3807 C.3       7 UNK         0.0284 
     36 CB        -73.5353   23.0187  -77.2296 C.3       7 UNK        -0.1958 
     37 N         -74.3872   24.7516  -78.7215 N.am      7 UNK        -0.4454 
     38 C         -74.5647   25.4529  -79.8488 C.2       7 UNK         0.5089 
     39 O         -73.7652   25.4647  -80.7847 O.2       7 UNK        -0.5125 
     40 CA        -75.8274   26.3293  -79.9167 C.3       6 UNK         0.0408 
     41 CB        -77.0154   25.5318  -80.4781 C.3       6 UNK        -0.1791 
     42 N         -76.1865   26.9015  -78.6138 N.am      6 UNK        -0.4762 
     43 C         -75.4725   27.8347  -77.9647 C.2       6 UNK         0.5007 
     44 O         -74.4340   28.3262  -78.4063 O.2       6 UNK        -0.5032 
     45 CA        -75.9808   28.2515  -76.5691 C.3       5 UNK         0.0783 
     46 C46       -77.1030   29.3222  -76.6637 C.3       11 UNK        -0.0857 
     47 S47       -76.4923   30.9607  -76.1495 S.3       11 UNK        -0.2512 
     48 C48       -77.6681   31.4171  -74.8355 C.3       11 UNK         0.0225 
     49 N         -76.3814   27.0928  -75.7668 N.am      5 UNK        -0.4615 
     50 C         -75.5262   26.1672  -75.3119 C.2       4 UNK         0.5053 
     51 O         -74.3127   26.1973  -75.5147 O.2       4 UNK        -0.5105 
     52 CA        -76.1311   24.9819  -74.5407 C.3       4 UNK         0.0263 
     53 CB        -76.3367   25.3583  -73.0641 C.3       4 UNK        -0.1981 
     54 N         -77.4002   24.4938  -75.0898 N.am      4 UNK        -0.4224 
     55 C         -77.6396   24.1370  -76.3608 C.2       3 UNK         0.4895 
     56 O         -76.7850   24.1744  -77.2454 O.2       3 UNK        -0.5091 
     57 CA        -79.0640   23.6663  -76.7238 C.3       3 UNK         0.0250 
     58 CB        -79.0253   22.2746  -77.3787 C.3       3 UNK        -0.1996 
     59 N         -80.0016   23.6340  -75.5940 N.am      3 UNK        -0.4254 
     60 C         -80.5371   24.7081  -74.9999 C.2       2 UNK         0.5004 
     61 O         -80.3072   25.8713  -75.3426 O.2       2 UNK        -0.5226 
     62 CA        -81.4183   24.4316  -73.7767 C.3       2 UNK         0.0269 
     63 CB        -80.5587   23.9352  -72.5931 C.3       2 UNK        -0.1926 
     64 N         -82.1117   25.6634  -73.4109 N.am      2 UNK        -0.4687 
     65 C         -83.1431   25.7590  -72.5677 C.2       1 UNK         0.5165 
     66 O         -83.6706   24.7843  -72.0236 O.2       1 UNK        -0.5079 
     67 H67       -87.9327   25.9942  -72.3131 H         1 UNK         0.0900 
     68 H68       -88.0863   27.7448  -72.4872 H         1 UNK         0.0900 
     69 H69       -87.4454   27.0591  -70.9930 H         1 UNK         0.0900 
     70 H70       -85.2182   27.2071  -70.8435 H         1 UNK         0.2959 
     71 H71       -83.5660   27.7772  -73.1529 H         1 UNK         0.1079 
     72 H72       -82.2376   27.1036  -70.5084 H         1 UNK         0.0837 
     73 H73       -83.3482   28.4282  -70.4565 H         1 UNK         0.0837 
     74 H74       -79.8630   27.5046  -70.9292 H         1 UNK         0.0685 
     75 H75       -80.0824   27.2365  -72.6446 H         1 UNK         0.0685 
     76 H76       -79.6110   29.6932  -74.0036 H         1 UNK         0.1434 
     77 H77       -75.6638   31.0454  -73.0179 H         1 UNK         0.1329 
     78 H78       -77.6556   28.2161  -70.4848 H         1 UNK         0.1335 
     79 H79       -74.6154   30.3757  -70.9979 H         1 UNK         0.0680 
     80 H80       -75.6480   29.7995  -69.7075 H         1 UNK         0.0680 
     81 H81       -73.1996   29.1744  -69.1101 H         1 UNK         0.1032 
     82 H82       -72.7319   27.4996  -69.1890 H         1 UNK         0.1032 
     83 H83       -72.0394   29.6113  -71.2852 H         1 UNK         0.0461 
     84 H84       -69.1500   28.2004  -70.9359 H         1 UNK         0.3453 
     85 H85       -68.5352   29.1528  -69.6090 H         1 UNK         0.3453 
     86 H86       -70.9809   26.8275  -71.1963 H         1 UNK         0.2984 
     87 H87       -70.2010   26.1388  -73.5135 H         1 UNK         0.0554 
     88 H88       -71.8341   24.9186  -72.1094 H         1 UNK         0.0847 
     89 H89       -71.8556   24.2299  -73.7219 H         1 UNK         0.0847 
     90 H90       -73.1432   25.3160  -73.2097 H         1 UNK         0.0847 
     91 H91       -72.4880   26.3350  -75.3958 H         1 UNK         0.3141 
     92 H92       -71.7522   28.1213  -77.3919 H         1 UNK         0.0743 
     93 H93       -69.4527   28.2053  -78.2598 H         1 UNK         0.0784 
     94 H94       -69.4430   26.4725  -78.5464 H         1 UNK         0.0784 
     95 H95       -70.5089   27.5198  -79.4832 H         1 UNK         0.0784 
     96 H96       -73.1188   26.5061  -77.9639 H         1 UNK         0.3213 
     97 H97       -72.9106   23.3833  -79.2524 H         1 UNK         0.0855 
     98 H98       -72.6922   22.3670  -76.9971 H         1 UNK         0.0814 
     99 H99       -74.3802   22.3783  -77.4840 H         1 UNK         0.0814 
    100 H100      -73.7877   23.5608  -76.3183 H         1 UNK         0.0814 
    101 H101      -75.1483   24.7374  -78.0460 H         1 UNK         0.3105 
    102 H102      -75.6212   27.1555  -80.6005 H         1 UNK         0.0547 
    103 H103      -76.7812   25.1302  -81.4649 H         1 UNK         0.0837 
    104 H104      -77.2786   24.6880  -79.8396 H         1 UNK         0.0837 
    105 H105      -77.8997   26.1596  -80.5872 H         1 UNK         0.0837 
    106 H106      -76.9888   26.4997  -78.1498 H         1 UNK         0.3020 
    107 H107      -75.1180   28.6816  -76.0529 H         1 UNK         0.1245 
    108 H108      -77.9576   29.0481  -76.0446 H         1 UNK         0.0781 
    109 H109      -77.5118   29.4155  -77.6723 H         1 UNK         0.0781 
    110 H110      -78.6708   31.4727  -75.2626 H         1 UNK         0.0836 
    111 H111      -77.4323   32.4252  -74.4918 H         1 UNK         0.0836 
    112 H112      -77.3642   26.9900  -75.5601 H         1 UNK         0.3022 
    113 H113      -75.4167   24.1583  -74.5901 H         1 UNK         0.0747 
    114 H114      -75.4101   25.7207  -72.6184 H         1 UNK         0.0793 
    115 H115      -77.0791   26.1492  -72.9469 H         1 UNK         0.0793 
    116 H116      -76.6622   24.5009  -72.4749 H         1 UNK         0.0793 
    117 H117      -78.1709   24.4323  -74.4429 H         1 UNK         0.3047 
    118 H118      -79.4474   24.3754  -77.4606 H         1 UNK         0.0822 
    119 H119      -80.0174   21.9601  -77.7032 H         1 UNK         0.0807 
    120 H120      -78.6380   21.5178  -76.6955 H         1 UNK         0.0807 
    121 H121      -78.3852   22.2729  -78.2623 H         1 UNK         0.0807 
    122 H122      -80.2311   22.7175  -75.2351 H         1 UNK         0.2946 
    123 H123      -82.1577   23.6739  -74.0466 H         1 UNK         0.1144 
    124 H124      -81.1697   23.7110  -71.7188 H         1 UNK         0.0793 
    125 H125      -79.8154   24.6758  -72.2954 H         1 UNK         0.0793 
    126 H126      -80.0245   23.0180  -72.8436 H         1 UNK         0.0793 
    127 H127      -81.7445   26.4898  -73.8687 H         1 UNK         0.2896 
@<TRIPOS>BOND
     1    1    2 1    
     2    1   67 1    
     3    1   68 1    
     4    1   69 1    
     5    2    3 2    
     6    2    4 am   BACKBONE|DICT|INTERRES
     7    4    5 1    
     8    4   70 1    
     9    5    6 1    
    10    5   65 1    
    11    5   71 1    
    12    6    7 1    
    13    6   72 1    
    14    6   73 1    
    15    7    8 1    
    16    8    9 1    
    17    8   74 1    
    18    8   75 1    
    19    9   10 ar   
    20    9   14 ar   
    21   10   11 ar   
    22   10   76 1    
    23   11   12 ar   
    24   11   48 1    
    25   12   13 ar   
    26   12   77 1    
    27   13   14 ar   
    28   13   15 1    
    29   14   78 1    
    30   15   16 1    
    31   15   79 1    
    32   15   80 1    
    33   16   17 1    
    34   17   18 1    
    35   17   81 1    
    36   17   82 1    
    37   18   19 1    
    38   18   22 1    
    39   18   83 1    
    40   19   20 am   BACKBONE|DICT|INTERRES
    41   19   21 2    
    42   20   84 1    
    43   20   85 1    
    44   22   23 am   BACKBONE|DICT|INTERRES
    45   22   86 1    
    46   23   24 2    
    47   23   25 1    
    48   25   26 1    
    49   25   27 1    
    50   25   87 1    
    51   26   88 1    
    52   26   89 1    
    53   26   90 1    
    54   27   28 am   BACKBONE|DICT|INTERRES
    55   27   91 1    
    56   28   29 2    
    57   28   30 1    
    58   30   31 1    
    59   30   32 1    
    60   30   92 1    
    61   31   93 1    
    62   31   94 1    
    63   31   95 1    
    64   32   33 am   BACKBONE|DICT|INTERRES
    65   32   96 1    
    66   33   34 2    
    67   33   35 1    
    68   35   36 1    
    69   35   37 1    
    70   35   97 1    
    71   36   98 1    
    72   36   99 1    
    73   36  100 1    
    74   37   38 am   BACKBONE|DICT|INTERRES
    75   37  101 1    
    76   38   39 2    
    77   38   40 1    
    78   40   41 1    
    79   40   42 1    
    80   40  102 1    
    81   41  103 1    
    82   41  104 1    
    83   41  105 1    
    84   42   43 am   BACKBONE|DICT|INTERRES
    85   42  106 1    
    86   43   44 2    
    87   43   45 1    
    88   45   46 1    
    89   45   49 1    
    90   45  107 1    
    91   46   47 1    
    92   46  108 1    
    93   46  109 1    
    94   47   48 1    
    95   48  110 1    
    96   48  111 1    
    97   49   50 am   BACKBONE|DICT|INTERRES
    98   49  112 1    
    99   50   51 2    
   100   50   52 1    
   101   52   53 1    
   102   52   54 1    
   103   52  113 1    
   104   53  114 1    
   105   53  115 1    
   106   53  116 1    
   107   54   55 am   BACKBONE|DICT|INTERRES
   108   54  117 1    
   109   55   56 2    
   110   55   57 1    
   111   57   58 1    
   112   57   59 1    
   113   57  118 1    
   114   58  119 1    
   115   58  120 1    
   116   58  121 1    
   117   59   60 am   BACKBONE|DICT|INTERRES
   118   59  122 1    
   119   60   61 2    
   120   60   62 1    
   121   62   63 1    
   122   62   64 1    
   123   62  123 1    
   124   63  124 1    
   125   63  125 1    
   126   63  126 1    
   127   64   65 am   BACKBONE|DICT|INTERRES
   128   64  127 1    
   129   65   66 2    
@<TRIPOS>SUBSTRUCTURE
     1 UNK         1 GROUP             0       ****    0 ROOT    
