@<TRIPOS>MOLECULE
3R135
127   129    1
SMALL
USER_CHARGES


@<TRIPOS>ATOM
      1 CA        -83.2188   26.8299  -69.8122 C.3       0 UNK        -0.1998 
      2 C         -83.6662   26.7860  -71.2656 C.2       0 UNK         0.4909 
      3 O         -84.6084   26.0661  -71.5969 O.2       0 UNK        -0.5240 
      4 N         -82.9946   27.5510  -72.1359 N.am      1 UNK        -0.4739 
      5 CA        -83.2545   27.6134  -73.5809 C.3       1 UNK         0.0864 
      6 C6        -82.7105   28.9262  -74.2048 C.3       11 UNK        -0.0881 
      7 S7        -80.8987   29.1193  -74.0784 S.3       11 UNK        -0.2682 
      8 C8        -80.7331   30.1354  -72.5771 C.3       11 UNK         0.0289 
      9 C9        -79.3645   29.9237  -71.9532 C.ar      11 UNK        -0.0687 
     10 C10       -79.0805   28.7231  -71.2946 C.ar      11 UNK        -0.0823 
     11 C11       -77.8017   28.4801  -70.7890 C.ar      11 UNK        -0.0830 
     12 C12       -76.8252   29.4754  -70.8797 C.ar      11 UNK        -0.1021 
     13 C13       -77.0890   30.6693  -71.5561 C.ar      11 UNK        -0.0753 
     14 C14       -78.3647   30.8926  -72.0842 C.ar      11 UNK        -0.0933 
     15 C15       -75.9795   31.6889  -71.7689 C.3       11 UNK         0.0166 
     16 S16       -74.9035   31.2114  -73.1644 S.3       11 UNK        -0.2615 
     17 C17       -73.8341   29.9440  -72.3959 C.3       11 UNK        -0.0865 
     18 CA        -72.3857   29.9738  -72.9497 C.3       10 UNK         0.0862 
     19 C         -71.3944   29.2047  -72.0228 C.2       10 UNK         0.5551 
     20 N         -70.5489   28.3101  -72.5205 N.am      10 UNK        -0.7319 
     21 O         -71.3808   29.4359  -70.8162 O.2       10 UNK        -0.5018 
     22 N         -72.3435   29.5490  -74.3583 N.am      10 UNK        -0.4509 
     23 C         -71.4401   29.9671  -75.2528 C.2       10 UNK         0.4899 
     24 O         -70.5989   30.8379  -75.0223 O.2       10 UNK        -0.4839 
     25 CA        -71.4708   29.2641  -76.6244 C.3       9 UNK         0.0222 
     26 CB        -70.2667   29.6287  -77.5179 C.3       9 UNK        -0.1966 
     27 N         -71.6038   27.8058  -76.5116 N.am      9 UNK        -0.4218 
     28 C         -70.8017   26.9606  -75.8435 C.2       9 UNK         0.5020 
     29 O         -69.7953   27.3201  -75.2312 O.2       9 UNK        -0.5274 
     30 CA        -71.1896   25.4689  -75.8006 C.3       8 UNK         0.0270 
     31 CB        -71.5627   25.0599  -74.3652 C.3       8 UNK        -0.1976 
     32 N         -72.2925   25.1148  -76.6974 N.am      8 UNK        -0.4313 
     33 C         -72.1945   25.0100  -78.0297 C.2       8 UNK         0.5041 
     34 O         -71.1355   25.1134  -78.6494 O.2       8 UNK        -0.5577 
     35 CA        -73.5077   24.8048  -78.8051 C.3       7 UNK         0.0284 
     36 CB        -73.8824   23.3153  -78.8551 C.3       7 UNK        -0.1958 
     37 N         -74.6248   25.5779  -78.2512 N.am      7 UNK        -0.4454 
     38 C         -74.6725   26.9167  -78.1825 C.2       7 UNK         0.5089 
     39 O         -73.7925   27.6561  -78.6208 O.2       7 UNK        -0.5125 
     40 CA        -75.8698   27.5360  -77.4450 C.3       6 UNK         0.0408 
     41 CB        -77.1164   27.5760  -78.3426 C.3       6 UNK        -0.1791 
     42 N         -76.1716   26.8284  -76.2008 N.am      6 UNK        -0.4762 
     43 C         -75.3839   26.8245  -75.1142 C.2       6 UNK         0.5007 
     44 O         -74.3334   27.4621  -75.0204 O.2       6 UNK        -0.5032 
     45 CA        -75.8438   25.9374  -73.9408 C.3       5 UNK         0.0783 
     46 C46       -76.8389   26.7243  -73.0616 C.3       11 UNK        -0.0857 
     47 S47       -77.4208   25.8231  -71.5776 S.3       11 UNK        -0.2512 
     48 C48       -77.4310   27.1002  -70.2607 C.3       11 UNK         0.0225 
     49 N         -76.3911   24.6633  -74.4160 N.am      5 UNK        -0.4615 
     50 C         -75.6626   23.7106  -75.0149 C.2       4 UNK         0.5053 
     51 O         -74.4518   23.8015  -75.2128 O.2       4 UNK        -0.5105 
     52 CA        -76.4144   22.4681  -75.5208 C.3       4 UNK         0.0263 
     53 CB        -76.5967   21.4499  -74.3844 C.3       4 UNK        -0.1981 
     54 N         -77.7178   22.7857  -76.1080 N.am      4 UNK        -0.4224 
     55 C         -77.9078   23.5734  -77.1770 C.2       3 UNK         0.4895 
     56 O         -76.9918   24.0772  -77.8250 O.2       3 UNK        -0.5091 
     57 CA        -79.3620   23.8861  -77.5705 C.3       3 UNK         0.0250 
     58 CB        -79.8318   22.9374  -78.6843 C.3       3 UNK        -0.1996 
     59 N         -80.3013   23.8241  -76.4451 N.am      3 UNK        -0.4254 
     60 C         -80.2732   24.6445  -75.3856 C.2       2 UNK         0.5004 
     61 O         -79.4428   25.5439  -75.2350 O.2       2 UNK        -0.5226 
     62 CA        -81.2927   24.3531  -74.2749 C.3       2 UNK         0.0269 
     63 CB        -80.6274   23.5574  -73.1394 C.3       2 UNK        -0.1926 
     64 N         -81.8570   25.5832  -73.7243 N.am      2 UNK        -0.4687 
     65 C         -82.7682   26.3535  -74.3367 C.2       1 UNK         0.5165 
     66 O         -83.2454   26.0908  -75.4423 O.2       1 UNK        -0.5079 
     67 H67       -84.0422   27.1538  -69.1763 H         1 UNK         0.0900 
     68 H68       -82.3847   27.5150  -69.6613 H         1 UNK         0.0900 
     69 H69       -82.9062   25.8382  -69.4862 H         1 UNK         0.0900 
     70 H70       -82.2302   28.1229  -71.8108 H         1 UNK         0.2959 
     71 H71       -84.3392   27.6298  -73.7110 H         1 UNK         0.1079 
     72 H72       -83.1966   29.7865  -73.7419 H         1 UNK         0.0837 
     73 H73       -82.9815   28.9775  -75.2611 H         1 UNK         0.0837 
     74 H74       -80.8897   31.1842  -72.8344 H         1 UNK         0.0685 
     75 H75       -81.5026   29.8792  -71.8489 H         1 UNK         0.0685 
     76 H76       -79.8307   27.9469  -71.2398 H         1 UNK         0.1434 
     77 H77       -75.8352   29.2872  -70.4903 H         1 UNK         0.1329 
     78 H78       -78.5702   31.8073  -72.6234 H         1 UNK         0.1335 
     79 H79       -75.3916   31.8092  -70.8578 H         1 UNK         0.0680 
     80 H80       -76.4091   32.6689  -71.9819 H         1 UNK         0.0680 
     81 H81       -74.2805   28.9595  -72.5420 H         1 UNK         0.1032 
     82 H82       -73.8263   30.1194  -71.3192 H         1 UNK         0.1032 
     83 H83       -72.0525   31.0124  -72.9031 H         1 UNK         0.0461 
     84 H84       -69.9177   27.8382  -71.8933 H         1 UNK         0.3453 
     85 H85       -70.4865   28.1344  -73.5163 H         1 UNK         0.3453 
     86 H86       -73.0002   28.8202  -74.6260 H         1 UNK         0.2984 
     87 H87       -72.3737   29.6148  -77.1261 H         1 UNK         0.0554 
     88 H88       -70.3345   29.1412  -78.4905 H         1 UNK         0.0847 
     89 H89       -69.3205   29.3365  -77.0613 H         1 UNK         0.0847 
     90 H90       -70.2236   30.7036  -77.6974 H         1 UNK         0.0847 
     91 H91       -72.4163   27.4178  -76.9756 H         1 UNK         0.3141 
     92 H92       -70.3084   24.8975  -76.0993 H         1 UNK         0.0743 
     93 H93       -72.4330   25.6088  -74.0042 H         1 UNK         0.0784 
     94 H94       -71.7875   23.9951  -74.3013 H         1 UNK         0.0784 
     95 H95       -70.7430   25.2581  -73.6733 H         1 UNK         0.0784 
     96 H96       -73.1895   24.9244  -76.2586 H         1 UNK         0.3213 
     97 H97       -73.3444   25.1506  -79.8280 H         1 UNK         0.0855 
     98 H98       -74.0701   22.9129  -77.8594 H         1 UNK         0.0814 
     99 H99       -73.0796   22.7257  -79.2997 H         1 UNK         0.0814 
    100 H100      -74.7771   23.1511  -79.4559 H         1 UNK         0.0814 
    101 H101      -75.4289   25.0467  -77.9202 H         1 UNK         0.3105 
    102 H102      -75.6079   28.5647  -77.1878 H         1 UNK         0.0547 
    103 H103      -77.4327   26.5791  -78.6492 H         1 UNK         0.0837 
    104 H104      -77.9554   28.0523  -77.8350 H         1 UNK         0.0837 
    105 H105      -76.9210   28.1472  -79.2510 H         1 UNK         0.0837 
    106 H106      -77.0142   26.2692  -76.1829 H         1 UNK         0.3020 
    107 H107      -74.9598   25.7150  -73.3386 H         1 UNK         0.1245 
    108 H108      -76.3536   27.6494  -72.7557 H         1 UNK         0.0781 
    109 H109      -77.7194   27.0210  -73.6359 H         1 UNK         0.0781 
    110 H110      -78.1355   26.8053  -69.4818 H         1 UNK         0.0836 
    111 H111      -76.4471   27.1212  -69.7896 H         1 UNK         0.0836 
    112 H112      -77.3894   24.5418  -74.3180 H         1 UNK         0.3022 
    113 H113      -75.8042   22.0067  -76.2998 H         1 UNK         0.0747 
    114 H114      -77.0509   20.5274  -74.7465 H         1 UNK         0.0793 
    115 H115      -75.6351   21.1835  -73.9430 H         1 UNK         0.0793 
    116 H116      -77.2247   21.8432  -73.5837 H         1 UNK         0.0793 
    117 H117      -78.5309   22.4051  -75.6476 H         1 UNK         0.3047 
    118 H118      -79.3786   24.9063  -77.9602 H         1 UNK         0.0822 
    119 H119      -80.8279   23.2032  -79.0389 H         1 UNK         0.0807 
    120 H120      -79.8589   21.8998  -78.3488 H         1 UNK         0.0807 
    121 H121      -79.1616   22.9841  -79.5441 H         1 UNK         0.0807 
    122 H122      -81.0095   23.1048  -76.4895 H         1 UNK         0.2946 
    123 H123      -82.1106   23.7570  -74.6865 H         1 UNK         0.1144 
    124 H124      -81.3419   23.3176  -72.3516 H         1 UNK         0.0793 
    125 H125      -79.8039   24.1116  -72.6866 H         1 UNK         0.0793 
    126 H126      -80.2227   22.6129  -73.5051 H         1 UNK         0.0793 
    127 H127      -81.4898   25.8968  -72.8388 H         1 UNK         0.2896 
@<TRIPOS>BOND
     1    1    2 1    
     2    1   67 1    
     3    1   68 1    
     4    1   69 1    
     5    2    3 2    
     6    2    4 am   BACKBONE|DICT|INTERRES
     7    4    5 1    
     8    4   70 1    
     9    5    6 1    
    10    5   65 1    
    11    5   71 1    
    12    6    7 1    
    13    6   72 1    
    14    6   73 1    
    15    7    8 1    
    16    8    9 1    
    17    8   74 1    
    18    8   75 1    
    19    9   10 ar   
    20    9   14 ar   
    21   10   11 ar   
    22   10   76 1    
    23   11   12 ar   
    24   11   48 1    
    25   12   13 ar   
    26   12   77 1    
    27   13   14 ar   
    28   13   15 1    
    29   14   78 1    
    30   15   16 1    
    31   15   79 1    
    32   15   80 1    
    33   16   17 1    
    34   17   18 1    
    35   17   81 1    
    36   17   82 1    
    37   18   19 1    
    38   18   22 1    
    39   18   83 1    
    40   19   20 am   BACKBONE|DICT|INTERRES
    41   19   21 2    
    42   20   84 1    
    43   20   85 1    
    44   22   23 am   BACKBONE|DICT|INTERRES
    45   22   86 1    
    46   23   24 2    
    47   23   25 1    
    48   25   26 1    
    49   25   27 1    
    50   25   87 1    
    51   26   88 1    
    52   26   89 1    
    53   26   90 1    
    54   27   28 am   BACKBONE|DICT|INTERRES
    55   27   91 1    
    56   28   29 2    
    57   28   30 1    
    58   30   31 1    
    59   30   32 1    
    60   30   92 1    
    61   31   93 1    
    62   31   94 1    
    63   31   95 1    
    64   32   33 am   BACKBONE|DICT|INTERRES
    65   32   96 1    
    66   33   34 2    
    67   33   35 1    
    68   35   36 1    
    69   35   37 1    
    70   35   97 1    
    71   36   98 1    
    72   36   99 1    
    73   36  100 1    
    74   37   38 am   BACKBONE|DICT|INTERRES
    75   37  101 1    
    76   38   39 2    
    77   38   40 1    
    78   40   41 1    
    79   40   42 1    
    80   40  102 1    
    81   41  103 1    
    82   41  104 1    
    83   41  105 1    
    84   42   43 am   BACKBONE|DICT|INTERRES
    85   42  106 1    
    86   43   44 2    
    87   43   45 1    
    88   45   46 1    
    89   45   49 1    
    90   45  107 1    
    91   46   47 1    
    92   46  108 1    
    93   46  109 1    
    94   47   48 1    
    95   48  110 1    
    96   48  111 1    
    97   49   50 am   BACKBONE|DICT|INTERRES
    98   49  112 1    
    99   50   51 2    
   100   50   52 1    
   101   52   53 1    
   102   52   54 1    
   103   52  113 1    
   104   53  114 1    
   105   53  115 1    
   106   53  116 1    
   107   54   55 am   BACKBONE|DICT|INTERRES
   108   54  117 1    
   109   55   56 2    
   110   55   57 1    
   111   57   58 1    
   112   57   59 1    
   113   57  118 1    
   114   58  119 1    
   115   58  120 1    
   116   58  121 1    
   117   59   60 am   BACKBONE|DICT|INTERRES
   118   59  122 1    
   119   60   61 2    
   120   60   62 1    
   121   62   63 1    
   122   62   64 1    
   123   62  123 1    
   124   63  124 1    
   125   63  125 1    
   126   63  126 1    
   127   64   65 am   BACKBONE|DICT|INTERRES
   128   64  127 1    
   129   65   66 2    
@<TRIPOS>SUBSTRUCTURE
     1 UNK         1 GROUP             0       ****    0 ROOT    
