@<TRIPOS>MOLECULE
3R135
127   129    1
SMALL
USER_CHARGES


@<TRIPOS>ATOM
      1 CA        -77.0165   20.8956  -76.0511 C.3       0 UNK        -0.1998 
      2 C         -77.4107   21.2808  -74.6330 C.2       0 UNK         0.4909 
      3 O         -77.4187   20.4279  -73.7444 O.2       0 UNK        -0.5240 
      4 N         -77.7296   22.5606  -74.4202 N.am      1 UNK        -0.4739 
      5 CA        -78.1989   23.1229  -73.1541 C.3       1 UNK         0.0864 
      6 C6        -77.6016   24.5402  -72.9590 C.3       11 UNK        -0.0881 
      7 S7        -77.3855   24.9935  -71.2046 S.3       11 UNK        -0.2682 
      8 C8        -78.3048   26.5694  -71.1095 C.3       11 UNK         0.0289 
      9 C9        -77.8462   27.6238  -72.1153 C.ar      11 UNK        -0.0687 
     10 C10       -78.7977   28.4298  -72.7449 C.ar      11 UNK        -0.0823 
     11 C11       -78.4096   29.3981  -73.6746 C.ar      11 UNK        -0.0830 
     12 C12       -77.0522   29.5696  -73.9675 C.ar      11 UNK        -0.1021 
     13 C13       -76.0874   28.7618  -73.3567 C.ar      11 UNK        -0.0753 
     14 C14       -76.4933   27.7985  -72.4267 C.ar      11 UNK        -0.0933 
     15 C15       -74.6219   28.8826  -73.7613 C.3       11 UNK         0.0166 
     16 S16       -73.4618   28.8139  -72.3597 S.3       11 UNK        -0.2615 
     17 C17       -73.4825   30.5380  -71.7600 C.3       11 UNK        -0.0865 
     18 CA        -72.6562   31.5268  -72.6317 C.3       10 UNK         0.0862 
     19 C         -72.5537   32.9179  -71.9405 C.2       10 UNK         0.5551 
     20 N         -71.3679   33.4007  -71.5907 N.am      10 UNK        -0.7319 
     21 O         -73.5716   33.5693  -71.7196 O.2       10 UNK        -0.5018 
     22 N         -71.3797   30.9442  -73.0839 N.am      10 UNK        -0.4509 
     23 C         -70.6560   31.3887  -74.1192 C.2       10 UNK         0.4899 
     24 O         -70.9058   32.4214  -74.7416 O.2       10 UNK        -0.4839 
     25 CA        -69.4624   30.5193  -74.5604 C.3       9 UNK         0.0222 
     26 CB        -68.1860   30.9493  -73.8189 C.3       9 UNK        -0.1966 
     27 N         -69.6574   29.0706  -74.3986 N.am      9 UNK        -0.4218 
     28 C         -70.6394   28.3488  -74.9595 C.2       9 UNK         0.5020 
     29 O         -71.5387   28.8336  -75.6545 O.2       9 UNK        -0.5274 
     30 CA        -70.6144   26.8294  -74.7155 C.3       8 UNK         0.0270 
     31 CB        -70.4656   26.4539  -73.2271 C.3       8 UNK        -0.1976 
     32 N         -71.8576   26.2863  -75.2478 N.am      8 UNK        -0.4313 
     33 C         -72.0860   25.0508  -75.7029 C.2       8 UNK         0.5041 
     34 O         -71.2581   24.1400  -75.6561 O.2       8 UNK        -0.5577 
     35 CA        -73.4770   24.7815  -76.3169 C.3       7 UNK         0.0284 
     36 CB        -74.3254   23.9192  -75.3679 C.3       7 UNK        -0.1958 
     37 N         -74.2191   26.0091  -76.6297 N.am      7 UNK        -0.4454 
     38 C         -73.9429   26.8363  -77.6484 C.2       7 UNK         0.5089 
     39 O         -73.0861   26.6015  -78.5015 O.2       7 UNK        -0.5125 
     40 CA        -74.7212   28.1671  -77.6809 C.3       6 UNK         0.0408 
     41 CB        -74.7706   28.8053  -79.0859 C.3       6 UNK        -0.1791 
     42 N         -76.0579   28.0832  -77.0744 N.am      6 UNK        -0.4762 
     43 C         -77.1219   27.4120  -77.5416 C.2       6 UNK         0.5007 
     44 O         -77.1255   26.7684  -78.5939 O.2       6 UNK        -0.5032 
     45 CA        -78.4047   27.5327  -76.6901 C.3       5 UNK         0.0783 
     46 C46       -79.0245   28.9451  -76.8530 C.3       11 UNK        -0.0857 
     47 S47       -80.3531   29.2645  -75.6456 S.3       11 UNK        -0.2512 
     48 C48       -79.4681   30.2341  -74.3795 C.3       11 UNK         0.0225 
     49 N         -79.3833   26.4855  -76.9929 N.am      5 UNK        -0.4615 
     50 C         -79.2125   25.1724  -76.8085 C.2       4 UNK         0.5053 
     51 O         -78.2102   24.6668  -76.2978 O.2       4 UNK        -0.5105 
     52 CA        -80.3948   24.2906  -77.2361 C.3       4 UNK         0.0263 
     53 CB        -79.9972   22.8194  -77.4549 C.3       4 UNK        -0.1981 
     54 N         -81.4582   24.3712  -76.2337 N.am      4 UNK        -0.4224 
     55 C         -82.4141   25.3129  -76.2170 C.2       3 UNK         0.4895 
     56 O         -82.5035   26.1961  -77.0714 O.2       3 UNK        -0.5091 
     57 CA        -83.4588   25.2725  -75.0847 C.3       3 UNK         0.0250 
     58 CB        -84.7761   24.6662  -75.5959 C.3       3 UNK        -0.1996 
     59 N         -83.0183   24.5255  -73.9050 N.am      3 UNK        -0.4254 
     60 C         -82.1752   24.9974  -72.9775 C.2       2 UNK         0.5004 
     61 O         -81.7183   26.1409  -72.9844 O.2       2 UNK        -0.5226 
     62 CA        -81.7256   24.0249  -71.8679 C.3       2 UNK         0.0269 
     63 CB        -82.5927   22.7507  -71.7394 C.3       2 UNK        -0.1926 
     64 N         -80.3081   23.6818  -72.0347 N.am      2 UNK        -0.4687 
     65 C         -79.7426   23.1412  -73.1236 C.2       1 UNK         0.5165 
     66 O         -80.3948   22.7130  -74.0806 O.2       1 UNK        -0.5079 
     67 H67       -77.0050   21.7585  -76.7173 H         1 UNK         0.0900 
     68 H68       -77.7207   20.1669  -76.4515 H         1 UNK         0.0900 
     69 H69       -76.0218   20.4507  -76.0573 H         1 UNK         0.0900 
     70 H70       -77.7807   23.2074  -75.2050 H         1 UNK         0.2959 
     71 H71       -77.8641   22.4799  -72.3369 H         1 UNK         0.1079 
     72 H72       -76.6062   24.5918  -73.4005 H         1 UNK         0.0837 
     73 H73       -78.1872   25.2919  -73.4931 H         1 UNK         0.0837 
     74 H74       -79.3667   26.3573  -71.2430 H         1 UNK         0.0685 
     75 H75       -78.1953   26.9775  -70.1041 H         1 UNK         0.0685 
     76 H76       -79.8490   28.2921  -72.5277 H         1 UNK         0.1434 
     77 H77       -76.7511   30.3175  -74.6885 H         1 UNK         0.1329 
     78 H78       -75.7520   27.1686  -71.9553 H         1 UNK         0.1335 
     79 H79       -74.3868   28.0520  -74.4259 H         1 UNK         0.0680 
     80 H80       -74.4425   29.7922  -74.3358 H         1 UNK         0.0680 
     81 H81       -73.0962   30.5246  -70.7390 H         1 UNK         0.1032 
     82 H82       -74.5193   30.8717  -71.6824 H         1 UNK         0.1032 
     83 H83       -73.2387   31.7046  -73.5375 H         1 UNK         0.0461 
     84 H84       -70.5308   32.8726  -71.7775 H         1 UNK         0.3453 
     85 H85       -71.3104   34.3033  -71.1459 H         1 UNK         0.3453 
     86 H86       -71.1100   30.0796  -72.6393 H         1 UNK         0.2984 
     87 H87       -69.3104   30.7023  -75.6261 H         1 UNK         0.0554 
     88 H88       -67.3078   30.4300  -74.2031 H         1 UNK         0.0847 
     89 H89       -68.2529   30.7514  -72.7483 H         1 UNK         0.0847 
     90 H90       -68.0044   32.0182  -73.9414 H         1 UNK         0.0847 
     91 H91       -68.9646   28.5855  -73.8469 H         1 UNK         0.3141 
     92 H92       -69.7764   26.4175  -75.2813 H         1 UNK         0.0743 
     93 H93       -69.5135   26.7938  -72.8192 H         1 UNK         0.0784 
     94 H94       -70.4993   25.3731  -73.0888 H         1 UNK         0.0784 
     95 H95       -71.2588   26.8876  -72.6189 H         1 UNK         0.0784 
     96 H96       -72.5546   27.0001  -75.4166 H         1 UNK         0.3213 
     97 H97       -73.3255   24.2259  -77.2449 H         1 UNK         0.0855 
     98 H98       -73.8492   22.9545  -75.1876 H         1 UNK         0.0814 
     99 H99       -75.3124   23.7195  -75.7858 H         1 UNK         0.0814 
    100 H100      -74.4577   24.4008  -74.3986 H         1 UNK         0.0814 
    101 H101      -74.9692   26.2587  -76.0028 H         1 UNK         0.3105 
    102 H102      -74.1538   28.8487  -77.0452 H         1 UNK         0.0547 
    103 H103      -75.2373   28.1459  -79.8179 H         1 UNK         0.0837 
    104 H104      -73.7659   29.0264  -79.4480 H         1 UNK         0.0837 
    105 H105      -75.3231   29.7445  -79.0776 H         1 UNK         0.0837 
    106 H106      -76.1688   28.5978  -76.2122 H         1 UNK         0.3020 
    107 H107      -78.1105   27.3885  -75.6484 H         1 UNK         0.1245 
    108 H108      -79.4387   29.0643  -77.8561 H         1 UNK         0.0781 
    109 H109      -78.2725   29.7296  -76.7516 H         1 UNK         0.0781 
    110 H110      -80.1890   30.5980  -73.6459 H         1 UNK         0.0836 
    111 H111      -79.0272   31.1210  -74.8373 H         1 UNK         0.0836 
    112 H112      -80.2703   26.8010  -77.3628 H         1 UNK         0.3022 
    113 H113      -80.7614   24.6673  -78.1936 H         1 UNK         0.0747 
    114 H114      -80.8350   22.2393  -77.8416 H         1 UNK         0.0793 
    115 H115      -79.1853   22.7394  -78.1788 H         1 UNK         0.0793 
    116 H116      -79.6620   22.3424  -76.5359 H         1 UNK         0.0793 
    117 H117      -81.3811   23.7235  -75.4543 H         1 UNK         0.3047 
    118 H118      -83.6536   26.3057  -74.7882 H         1 UNK         0.0822 
    119 H119      -85.5514   24.6975  -74.8301 H         1 UNK         0.0807 
    120 H120      -84.6502   23.6280  -75.9060 H         1 UNK         0.0807 
    121 H121      -85.1523   25.2199  -76.4574 H         1 UNK         0.0807 
    122 H122      -83.3202   23.5644  -73.8331 H         1 UNK         0.2946 
    123 H123      -81.8104   24.5774  -70.9305 H         1 UNK         0.1144 
    124 H124      -83.6422   23.0038  -71.5823 H         1 UNK         0.0793 
    125 H125      -82.2792   22.1549  -70.8821 H         1 UNK         0.0793 
    126 H126      -82.5334   22.1091  -72.6189 H         1 UNK         0.0793 
    127 H127      -79.6870   24.0299  -71.3159 H         1 UNK         0.2896 
@<TRIPOS>BOND
     1    1    2 1    
     2    1   67 1    
     3    1   68 1    
     4    1   69 1    
     5    2    3 2    
     6    2    4 am   BACKBONE|DICT|INTERRES
     7    4    5 1    
     8    4   70 1    
     9    5    6 1    
    10    5   65 1    
    11    5   71 1    
    12    6    7 1    
    13    6   72 1    
    14    6   73 1    
    15    7    8 1    
    16    8    9 1    
    17    8   74 1    
    18    8   75 1    
    19    9   10 ar   
    20    9   14 ar   
    21   10   11 ar   
    22   10   76 1    
    23   11   12 ar   
    24   11   48 1    
    25   12   13 ar   
    26   12   77 1    
    27   13   14 ar   
    28   13   15 1    
    29   14   78 1    
    30   15   16 1    
    31   15   79 1    
    32   15   80 1    
    33   16   17 1    
    34   17   18 1    
    35   17   81 1    
    36   17   82 1    
    37   18   19 1    
    38   18   22 1    
    39   18   83 1    
    40   19   20 am   BACKBONE|DICT|INTERRES
    41   19   21 2    
    42   20   84 1    
    43   20   85 1    
    44   22   23 am   BACKBONE|DICT|INTERRES
    45   22   86 1    
    46   23   24 2    
    47   23   25 1    
    48   25   26 1    
    49   25   27 1    
    50   25   87 1    
    51   26   88 1    
    52   26   89 1    
    53   26   90 1    
    54   27   28 am   BACKBONE|DICT|INTERRES
    55   27   91 1    
    56   28   29 2    
    57   28   30 1    
    58   30   31 1    
    59   30   32 1    
    60   30   92 1    
    61   31   93 1    
    62   31   94 1    
    63   31   95 1    
    64   32   33 am   BACKBONE|DICT|INTERRES
    65   32   96 1    
    66   33   34 2    
    67   33   35 1    
    68   35   36 1    
    69   35   37 1    
    70   35   97 1    
    71   36   98 1    
    72   36   99 1    
    73   36  100 1    
    74   37   38 am   BACKBONE|DICT|INTERRES
    75   37  101 1    
    76   38   39 2    
    77   38   40 1    
    78   40   41 1    
    79   40   42 1    
    80   40  102 1    
    81   41  103 1    
    82   41  104 1    
    83   41  105 1    
    84   42   43 am   BACKBONE|DICT|INTERRES
    85   42  106 1    
    86   43   44 2    
    87   43   45 1    
    88   45   46 1    
    89   45   49 1    
    90   45  107 1    
    91   46   47 1    
    92   46  108 1    
    93   46  109 1    
    94   47   48 1    
    95   48  110 1    
    96   48  111 1    
    97   49   50 am   BACKBONE|DICT|INTERRES
    98   49  112 1    
    99   50   51 2    
   100   50   52 1    
   101   52   53 1    
   102   52   54 1    
   103   52  113 1    
   104   53  114 1    
   105   53  115 1    
   106   53  116 1    
   107   54   55 am   BACKBONE|DICT|INTERRES
   108   54  117 1    
   109   55   56 2    
   110   55   57 1    
   111   57   58 1    
   112   57   59 1    
   113   57  118 1    
   114   58  119 1    
   115   58  120 1    
   116   58  121 1    
   117   59   60 am   BACKBONE|DICT|INTERRES
   118   59  122 1    
   119   60   61 2    
   120   60   62 1    
   121   62   63 1    
   122   62   64 1    
   123   62  123 1    
   124   63  124 1    
   125   63  125 1    
   126   63  126 1    
   127   64   65 am   BACKBONE|DICT|INTERRES
   128   64  127 1    
   129   65   66 2    
@<TRIPOS>SUBSTRUCTURE
     1 UNK         1 GROUP             0       ****    0 ROOT    
