@<TRIPOS>MOLECULE
3R135
127   129    1
SMALL
USER_CHARGES


@<TRIPOS>ATOM
      1 CA        -82.4676   28.9305  -75.5682 C.3       0 UNK        -0.1998 
      2 C         -80.9915   28.5667  -75.5690 C.2       0 UNK         0.4909 
      3 O         -80.6236   27.5060  -75.0683 O.2       0 UNK        -0.5240 
      4 N         -80.1415   29.4279  -76.1460 N.am      1 UNK        -0.4739 
      5 CA        -78.6719   29.3076  -76.1889 C.3       1 UNK         0.0864 
      6 C6        -78.0129   29.3745  -74.7852 C.3       11 UNK        -0.0881 
      7 S7        -78.4676   30.8560  -73.8262 S.3       11 UNK        -0.2682 
      8 C8        -79.2998   30.1000  -72.3844 C.3       11 UNK         0.0289 
      9 C9        -78.3939   29.1915  -71.5531 C.ar      11 UNK        -0.0687 
     10 C10       -78.8809   27.9722  -71.0681 C.ar      11 UNK        -0.0823 
     11 C11       -78.0723   27.1369  -70.2881 C.ar      11 UNK        -0.0830 
     12 C12       -76.7571   27.5261  -70.0037 C.ar      11 UNK        -0.1021 
     13 C13       -76.2600   28.7472  -70.4736 C.ar      11 UNK        -0.0753 
     14 C14       -77.0864   29.5751  -71.2383 C.ar      11 UNK        -0.0933 
     15 C15       -74.8476   29.2067  -70.1261 C.3       11 UNK         0.0166 
     16 S16       -73.5379   28.2800  -70.9936 S.3       11 UNK        -0.2615 
     17 C17       -73.9384   28.5462  -72.7542 C.3       11 UNK        -0.0865 
     18 CA        -73.2715   29.7672  -73.4286 C.3       10 UNK         0.0862 
     19 C         -71.7321   29.6060  -73.5417 C.2       10 UNK         0.5551 
     20 N         -71.2318   28.8487  -74.5112 N.am      10 UNK        -0.7319 
     21 O         -70.9861   30.1881  -72.7582 O.2       10 UNK        -0.5018 
     22 N         -73.8787   29.9769  -74.7488 N.am      10 UNK        -0.4509 
     23 C         -74.3224   31.1437  -75.2304 C.2       10 UNK         0.4899 
     24 O         -74.3133   32.1964  -74.5908 O.2       10 UNK        -0.4839 
     25 CA        -74.8951   31.1231  -76.6655 C.3       9 UNK         0.0222 
     26 CB        -74.9045   32.5155  -77.3322 C.3       9 UNK        -0.1966 
     27 N         -74.2605   30.1198  -77.5321 N.am      9 UNK        -0.4218 
     28 C         -72.9695   30.0669  -77.8997 C.2       9 UNK         0.5020 
     29 O         -72.1454   30.9430  -77.6321 O.2       9 UNK        -0.5274 
     30 CA        -72.5206   28.8144  -78.6877 C.3       8 UNK         0.0270 
     31 CB        -71.0171   28.5155  -78.5029 C.3       8 UNK        -0.1976 
     32 N         -73.3107   27.6007  -78.4186 N.am      8 UNK        -0.4313 
     33 C         -73.5293   27.0245  -77.2272 C.2       8 UNK         0.5041 
     34 O         -73.1278   27.4948  -76.1580 O.2       8 UNK        -0.5577 
     35 CA        -74.3705   25.7364  -77.2528 C.3       7 UNK         0.0284 
     36 CB        -73.5460   24.5127  -77.7008 C.3       7 UNK        -0.1958 
     37 N         -75.0569   25.5331  -75.9731 N.am      7 UNK        -0.4454 
     38 C         -74.5750   25.0670  -74.8099 C.2       7 UNK         0.5089 
     39 O         -73.5013   24.4784  -74.6747 O.2       7 UNK        -0.5125 
     40 CA        -75.4213   25.3466  -73.5593 C.3       6 UNK         0.0408 
     41 CB        -76.5238   26.3983  -73.7793 C.3       6 UNK        -0.1791 
     42 N         -76.0588   24.1302  -73.0880 N.am      6 UNK        -0.4762 
     43 C         -75.9499   23.6234  -71.8534 C.2       6 UNK         0.5007 
     44 O         -75.1144   23.9940  -71.0271 O.2       6 UNK        -0.5032 
     45 CA        -76.9953   22.5647  -71.4358 C.3       5 UNK         0.0783 
     46 C46       -77.9796   23.1428  -70.3837 C.3       11 UNK        -0.0857 
     47 S47       -78.9678   24.5736  -70.9740 S.3       11 UNK        -0.2512 
     48 C48       -78.6430   25.8480  -69.7048 C.3       11 UNK         0.0225 
     49 N         -77.7170   21.9927  -72.5774 N.am      5 UNK        -0.4615 
     50 C         -77.2059   21.1044  -73.4393 C.2       4 UNK         0.5053 
     51 O         -76.0996   20.5824  -73.3015 O.2       4 UNK        -0.5105 
     52 CA        -78.0565   20.7481  -74.6744 C.3       4 UNK         0.0263 
     53 CB        -78.7708   19.4036  -74.4607 C.3       4 UNK        -0.1981 
     54 N         -79.0475   21.7640  -75.0558 N.am      4 UNK        -0.4224 
     55 C         -78.7665   23.0213  -75.4273 C.2       3 UNK         0.4895 
     56 O         -77.6290   23.4939  -75.4319 O.2       3 UNK        -0.5091 
     57 CA        -79.9733   23.9042  -75.7919 C.3       3 UNK         0.0250 
     58 CB        -80.6631   24.4011  -74.5107 C.3       3 UNK        -0.1996 
     59 N         -79.6186   25.0594  -76.6265 N.am      3 UNK        -0.4254 
     60 C         -79.1149   24.9808  -77.8697 C.2       2 UNK         0.5004 
     61 O         -78.9351   23.9134  -78.4588 O.2       2 UNK        -0.5226 
     62 CA        -78.7825   26.2911  -78.6140 C.3       2 UNK         0.0269 
     63 CB        -79.5828   26.3908  -79.9249 C.3       2 UNK        -0.1926 
     64 N         -79.0391   27.4974  -77.8249 N.am      2 UNK        -0.4687 
     65 C         -78.1701   28.0769  -76.9864 C.2       1 UNK         0.5165 
     66 O         -77.0145   27.6761  -76.8332 O.2       1 UNK        -0.5079 
     67 H67       -82.8338   28.9972  -74.5441 H         1 UNK         0.0900 
     68 H68       -83.0429   28.1641  -76.0867 H         1 UNK         0.0900 
     69 H69       -82.6530   29.8862  -76.0581 H         1 UNK         0.0900 
     70 H70       -80.5098   30.2776  -76.5513 H         1 UNK         0.2959 
     71 H71       -78.3224   30.1723  -76.7546 H         1 UNK         0.1079 
     72 H72       -76.9257   29.3781  -74.8670 H         1 UNK         0.0837 
     73 H73       -78.2721   28.4831  -74.2140 H         1 UNK         0.0837 
     74 H74       -79.6770   30.8963  -71.7419 H         1 UNK         0.0685 
     75 H75       -80.1720   29.5490  -72.7394 H         1 UNK         0.0685 
     76 H76       -79.8964   27.6722  -71.2890 H         1 UNK         0.1434 
     77 H77       -76.1222   26.8894  -69.4024 H         1 UNK         0.1329 
     78 H78       -76.7089   30.5245  -71.5928 H         1 UNK         0.1335 
     79 H79       -74.6947   29.1002  -69.0513 H         1 UNK         0.0680 
     80 H80       -74.7238   30.2689  -70.3436 H         1 UNK         0.0680 
     81 H81       -75.0185   28.6372  -72.8442 H         1 UNK         0.1032 
     82 H82       -73.6666   27.6432  -73.3012 H         1 UNK         0.1032 
     83 H83       -73.4652   30.6365  -72.7971 H         1 UNK         0.0461 
     84 H84       -71.8508   28.3463  -75.1444 H         1 UNK         0.3453 
     85 H85       -70.2337   28.7483  -74.5956 H         1 UNK         0.3453 
     86 H86       -73.8345   29.1761  -75.3718 H         1 UNK         0.2984 
     87 H87       -75.9341   30.8112  -76.5645 H         1 UNK         0.0554 
     88 H88       -75.5131   33.2177  -76.7610 H         1 UNK         0.0847 
     89 H89       -75.3217   32.4724  -78.3381 H         1 UNK         0.0847 
     90 H90       -73.9025   32.9395  -77.4016 H         1 UNK         0.0847 
     91 H91       -74.8466   29.3396  -77.7965 H         1 UNK         0.3141 
     92 H92       -72.6806   29.0548  -79.7397 H         1 UNK         0.0743 
     93 H93       -70.4038   29.3572  -78.8270 H         1 UNK         0.0784 
     94 H94       -70.7718   28.3168  -77.4592 H         1 UNK         0.0784 
     95 H95       -70.7094   27.6499  -79.0895 H         1 UNK         0.0784 
     96 H96       -73.7038   27.1557  -79.2373 H         1 UNK         0.3213 
     97 H97       -75.1699   25.8827  -77.9808 H         1 UNK         0.0855 
     98 H98       -73.2317   24.6146  -78.7399 H         1 UNK         0.0814 
     99 H99       -72.6404   24.3900  -77.1061 H         1 UNK         0.0814 
    100 H100      -74.1267   23.5932  -77.6261 H         1 UNK         0.0814 
    101 H101      -75.9528   26.0047  -75.9322 H         1 UNK         0.3105 
    102 H102      -74.7381   25.7285  -72.7998 H         1 UNK         0.0547 
    103 H103      -76.1235   27.2913  -74.2544 H         1 UNK         0.0837 
    104 H104      -77.3359   26.0258  -74.4052 H         1 UNK         0.0837 
    105 H105      -76.9598   26.7051  -72.8308 H         1 UNK         0.0837 
    106 H106      -76.7173   23.7153  -73.7417 H         1 UNK         0.3020 
    107 H107      -76.4370   21.7565  -70.9572 H         1 UNK         0.1245 
    108 H108      -77.4289   23.4094  -69.4808 H         1 UNK         0.0781 
    109 H109      -78.6766   22.3640  -70.0705 H         1 UNK         0.0781 
    110 H110      -77.9826   25.4654  -68.9266 H         1 UNK         0.0836 
    111 H111      -79.5835   26.0765  -69.2016 H         1 UNK         0.0836 
    112 H112      -78.6330   22.3761  -72.7579 H         1 UNK         0.3022 
    113 H113      -77.3665   20.6383  -75.5137 H         1 UNK         0.0747 
    114 H114      -79.2924   19.0820  -75.3624 H         1 UNK         0.0793 
    115 H115      -78.0578   18.6181  -74.2055 H         1 UNK         0.0793 
    116 H116      -79.4991   19.4576  -73.6504 H         1 UNK         0.0793 
    117 H117      -80.0124   21.4646  -75.0607 H         1 UNK         0.3047 
    118 H118      -80.6808   23.2945  -76.3576 H         1 UNK         0.0822 
    119 H119      -81.5672   24.9649  -74.7414 H         1 UNK         0.0807 
    120 H120      -80.0063   25.0490  -73.9279 H         1 UNK         0.0807 
    121 H121      -80.9595   23.5731  -73.8658 H         1 UNK         0.0807 
    122 H122      -79.7553   25.9726  -76.2068 H         1 UNK         0.2946 
    123 H123      -77.7209   26.2477  -78.8676 H         1 UNK         0.1144 
    124 H124      -79.3196   27.2896  -80.4830 H         1 UNK         0.0793 
    125 H125      -80.6577   26.4116  -79.7409 H         1 UNK         0.0793 
    126 H126      -79.3801   25.5393  -80.5760 H         1 UNK         0.0793 
    127 H127      -79.9704   27.8850  -77.8773 H         1 UNK         0.2896 
@<TRIPOS>BOND
     1    1    2 1    
     2    1   67 1    
     3    1   68 1    
     4    1   69 1    
     5    2    3 2    
     6    2    4 am   BACKBONE|DICT|INTERRES
     7    4    5 1    
     8    4   70 1    
     9    5    6 1    
    10    5   65 1    
    11    5   71 1    
    12    6    7 1    
    13    6   72 1    
    14    6   73 1    
    15    7    8 1    
    16    8    9 1    
    17    8   74 1    
    18    8   75 1    
    19    9   10 ar   
    20    9   14 ar   
    21   10   11 ar   
    22   10   76 1    
    23   11   12 ar   
    24   11   48 1    
    25   12   13 ar   
    26   12   77 1    
    27   13   14 ar   
    28   13   15 1    
    29   14   78 1    
    30   15   16 1    
    31   15   79 1    
    32   15   80 1    
    33   16   17 1    
    34   17   18 1    
    35   17   81 1    
    36   17   82 1    
    37   18   19 1    
    38   18   22 1    
    39   18   83 1    
    40   19   20 am   BACKBONE|DICT|INTERRES
    41   19   21 2    
    42   20   84 1    
    43   20   85 1    
    44   22   23 am   BACKBONE|DICT|INTERRES
    45   22   86 1    
    46   23   24 2    
    47   23   25 1    
    48   25   26 1    
    49   25   27 1    
    50   25   87 1    
    51   26   88 1    
    52   26   89 1    
    53   26   90 1    
    54   27   28 am   BACKBONE|DICT|INTERRES
    55   27   91 1    
    56   28   29 2    
    57   28   30 1    
    58   30   31 1    
    59   30   32 1    
    60   30   92 1    
    61   31   93 1    
    62   31   94 1    
    63   31   95 1    
    64   32   33 am   BACKBONE|DICT|INTERRES
    65   32   96 1    
    66   33   34 2    
    67   33   35 1    
    68   35   36 1    
    69   35   37 1    
    70   35   97 1    
    71   36   98 1    
    72   36   99 1    
    73   36  100 1    
    74   37   38 am   BACKBONE|DICT|INTERRES
    75   37  101 1    
    76   38   39 2    
    77   38   40 1    
    78   40   41 1    
    79   40   42 1    
    80   40  102 1    
    81   41  103 1    
    82   41  104 1    
    83   41  105 1    
    84   42   43 am   BACKBONE|DICT|INTERRES
    85   42  106 1    
    86   43   44 2    
    87   43   45 1    
    88   45   46 1    
    89   45   49 1    
    90   45  107 1    
    91   46   47 1    
    92   46  108 1    
    93   46  109 1    
    94   47   48 1    
    95   48  110 1    
    96   48  111 1    
    97   49   50 am   BACKBONE|DICT|INTERRES
    98   49  112 1    
    99   50   51 2    
   100   50   52 1    
   101   52   53 1    
   102   52   54 1    
   103   52  113 1    
   104   53  114 1    
   105   53  115 1    
   106   53  116 1    
   107   54   55 am   BACKBONE|DICT|INTERRES
   108   54  117 1    
   109   55   56 2    
   110   55   57 1    
   111   57   58 1    
   112   57   59 1    
   113   57  118 1    
   114   58  119 1    
   115   58  120 1    
   116   58  121 1    
   117   59   60 am   BACKBONE|DICT|INTERRES
   118   59  122 1    
   119   60   61 2    
   120   60   62 1    
   121   62   63 1    
   122   62   64 1    
   123   62  123 1    
   124   63  124 1    
   125   63  125 1    
   126   63  126 1    
   127   64   65 am   BACKBONE|DICT|INTERRES
   128   64  127 1    
   129   65   66 2    
@<TRIPOS>SUBSTRUCTURE
     1 UNK         1 GROUP             0       ****    0 ROOT    
