@<TRIPOS>MOLECULE
3R135
127   129    1
SMALL
USER_CHARGES


@<TRIPOS>ATOM
      1 CA        -80.2148   28.4060  -79.9690 C.3       0 UNK        -0.1998 
      2 C         -80.2480   27.7594  -78.5927 C.2       0 UNK         0.4909 
      3 O         -79.9446   26.5731  -78.4670 O.2       0 UNK        -0.5240 
      4 N         -80.6026   28.5308  -77.5561 N.am      1 UNK        -0.4739 
      5 CA        -80.6983   28.0584  -76.1709 C.3       1 UNK         0.0864 
      6 C6        -80.7145   29.2395  -75.1647 C.3       11 UNK        -0.0881 
      7 S7        -79.9825   28.7776  -73.5571 S.3       11 UNK        -0.2682 
      8 C8        -78.2354   29.1433  -73.8915 C.3       11 UNK         0.0289 
      9 C9        -77.3236   28.5871  -72.8100 C.ar      11 UNK        -0.0687 
     10 C10       -76.9642   27.2368  -72.8244 C.ar      11 UNK        -0.0823 
     11 C11       -76.0777   26.7237  -71.8713 C.ar      11 UNK        -0.0830 
     12 C12       -75.5720   27.5723  -70.8811 C.ar      11 UNK        -0.1021 
     13 C13       -75.9354   28.9232  -70.8488 C.ar      11 UNK        -0.0753 
     14 C14       -76.8102   29.4246  -71.8170 C.ar      11 UNK        -0.0933 
     15 C15       -75.4062   29.8462  -69.7615 C.3       11 UNK         0.0166 
     16 S16       -73.9402   30.7732  -70.3127 S.3       11 UNK        -0.2615 
     17 C17       -72.6082   29.5766  -69.9602 C.3       11 UNK        -0.0865 
     18 CA        -71.4092   29.7041  -70.9324 C.3       10 UNK         0.0862 
     19 C         -70.2569   28.7636  -70.4801 C.2       10 UNK         0.5551 
     20 N         -69.3211   29.2669  -69.6871 N.am      10 UNK        -0.7319 
     21 O         -70.2331   27.5770  -70.8017 O.2       10 UNK        -0.5018 
     22 N         -71.8223   29.4805  -72.3259 N.am      10 UNK        -0.4509 
     23 C         -71.0287   29.6018  -73.3981 C.2       10 UNK         0.4899 
     24 O         -69.8587   29.9840  -73.3534 O.2       10 UNK        -0.4839 
     25 CA        -71.6429   29.2392  -74.7598 C.3       9 UNK         0.0222 
     26 CB        -71.4266   27.7471  -75.0588 C.3       9 UNK        -0.1966 
     27 N         -73.0704   29.5503  -74.8586 N.am      9 UNK        -0.4218 
     28 C         -73.5956   30.7805  -74.9191 C.2       9 UNK         0.5020 
     29 O         -72.9270   31.8149  -74.8725 O.2       9 UNK        -0.5274 
     30 CA        -75.1242   30.8517  -75.1131 C.3       8 UNK         0.0270 
     31 CB        -75.6736   32.2880  -75.0344 C.3       8 UNK        -0.1976 
     32 N         -75.5401   30.2447  -76.3840 N.am      8 UNK        -0.4313 
     33 C         -75.5970   28.9271  -76.6099 C.2       8 UNK         0.5041 
     34 O         -75.3461   28.0839  -75.7434 O.2       8 UNK        -0.5577 
     35 CA        -75.9493   28.4645  -78.0285 C.3       7 UNK         0.0284 
     36 CB        -74.7532   28.7003  -78.9744 C.3       7 UNK        -0.1958 
     37 N         -76.2637   27.0435  -77.9261 N.am      7 UNK        -0.4454 
     38 C         -76.6549   26.1953  -78.8814 C.2       7 UNK         0.5089 
     39 O         -76.8499   26.5290  -80.0515 O.2       7 UNK        -0.5125 
     40 CA        -76.8845   24.7263  -78.4549 C.3       6 UNK         0.0408 
     41 CB        -76.4552   23.7273  -79.5495 C.3       6 UNK        -0.1791 
     42 N         -76.2953   24.3602  -77.1555 N.am      6 UNK        -0.4762 
     43 C         -74.9923   24.3532  -76.8173 C.2       6 UNK         0.5007 
     44 O         -74.0805   24.6611  -77.5851 O.2       6 UNK        -0.5032 
     45 CA        -74.6484   23.9585  -75.3627 C.3       5 UNK         0.0783 
     46 C46       -74.5627   25.2400  -74.4993 C.3       11 UNK        -0.0857 
     47 S47       -74.1064   24.9522  -72.7567 S.3       11 UNK        -0.2512 
     48 C48       -75.6845   25.2505  -71.8924 C.3       11 UNK         0.0225 
     49 N         -75.5929   22.9780  -74.8141 N.am      5 UNK        -0.4615 
     50 C         -75.7647   21.7346  -75.2809 C.2       4 UNK         0.5053 
     51 O         -75.0634   21.2401  -76.1642 O.2       4 UNK        -0.5105 
     52 CA        -76.9071   20.8895  -74.6827 C.3       4 UNK         0.0263 
     53 CB        -76.3300   19.7593  -73.8131 C.3       4 UNK        -0.1981 
     54 N         -77.9254   21.6081  -73.9023 N.am      4 UNK        -0.4224 
     55 C         -78.6996   22.6195  -74.3203 C.2       3 UNK         0.4895 
     56 O         -78.5586   23.2071  -75.3973 O.2       3 UNK        -0.5091 
     57 CA        -79.8074   23.0536  -73.3514 C.3       3 UNK         0.0250 
     58 CB        -79.2368   23.7853  -72.1207 C.3       3 UNK        -0.1996 
     59 N         -80.7405   23.9285  -74.0525 N.am      3 UNK        -0.4254 
     60 C         -82.0028   24.1872  -73.6879 C.2       2 UNK         0.5004 
     61 O         -82.5562   23.6556  -72.7237 O.2       2 UNK        -0.5226 
     62 CA        -82.7457   25.2510  -74.5144 C.3       2 UNK         0.0269 
     63 CB        -83.9628   25.8489  -73.7792 C.3       2 UNK        -0.1926 
     64 N         -81.8088   26.3120  -74.8823 N.am      2 UNK        -0.4687 
     65 C         -81.8876   27.0930  -75.9624 C.2       1 UNK         0.5165 
     66 O         -82.8348   27.0762  -76.7534 O.2       1 UNK        -0.5079 
     67 H67       -80.4637   29.4663  -79.9288 H         1 UNK         0.0900 
     68 H68       -79.2199   28.3067  -80.4032 H         1 UNK         0.0900 
     69 H69       -80.9264   27.9138  -80.6313 H         1 UNK         0.0900 
     70 H70       -80.8858   29.4863  -77.7201 H         1 UNK         0.2959 
     71 H71       -79.7904   27.4750  -75.9982 H         1 UNK         0.1079 
     72 H72       -81.7275   29.6150  -75.0052 H         1 UNK         0.0837 
     73 H73       -80.1489   30.0868  -75.5566 H         1 UNK         0.0837 
     74 H74       -78.1055   30.2223  -73.9879 H         1 UNK         0.0685 
     75 H75       -77.9546   28.7122  -74.8525 H         1 UNK         0.0685 
     76 H76       -77.3724   26.5923  -73.5896 H         1 UNK         0.1434 
     77 H77       -74.8999   27.1759  -70.1329 H         1 UNK         0.1329 
     78 H78       -77.0862   30.4702  -71.7997 H         1 UNK         0.1335 
     79 H79       -75.1738   29.2846  -68.8552 H         1 UNK         0.0680 
     80 H80       -76.1830   30.5595  -69.4816 H         1 UNK         0.0680 
     81 H81       -72.2845   29.7420  -68.9306 H         1 UNK         0.1032 
     82 H82       -73.0046   28.5611  -69.9914 H         1 UNK         0.1032 
     83 H83       -71.0414   30.7310  -70.8795 H         1 UNK         0.0461 
     84 H84       -69.3379   30.2363  -69.4100 H         1 UNK         0.3453 
     85 H85       -68.5745   28.6687  -69.3689 H         1 UNK         0.3453 
     86 H86       -72.7714   29.1661  -72.4611 H         1 UNK         0.2984 
     87 H87       -71.1232   29.8183  -75.5260 H         1 UNK         0.0554 
     88 H88       -70.3626   27.5085  -75.0900 H         1 UNK         0.0847 
     89 H89       -71.8506   27.4646  -76.0229 H         1 UNK         0.0847 
     90 H90       -71.8757   27.1145  -74.2921 H         1 UNK         0.0847 
     91 H91       -73.7179   28.7721  -74.9642 H         1 UNK         0.3141 
     92 H92       -75.5670   30.2873  -74.2918 H         1 UNK         0.0743 
     93 H93       -75.2776   32.9179  -75.8319 H         1 UNK         0.0784 
     94 H94       -76.7614   32.3011  -75.1037 H         1 UNK         0.0784 
     95 H95       -75.4058   32.7550  -74.0854 H         1 UNK         0.0784 
     96 H96       -75.7173   30.8802  -77.1491 H         1 UNK         0.3213 
     97 H97       -76.8316   29.0029  -78.3792 H         1 UNK         0.0855 
     98 H98       -73.8757   28.1348  -78.6571 H         1 UNK         0.0814 
     99 H99       -74.4701   29.7531  -79.0026 H         1 UNK         0.0814 
    100 H100      -74.9838   28.4094  -79.9988 H         1 UNK         0.0814 
    101 H101      -76.1157   26.6871  -76.9888 H         1 UNK         0.3105 
    102 H102      -77.9624   24.6214  -78.3247 H         1 UNK         0.0547 
    103 H103      -76.6395   22.6981  -79.2419 H         1 UNK         0.0837 
    104 H104      -75.3963   23.8218  -79.7913 H         1 UNK         0.0837 
    105 H105      -77.0135   23.8931  -80.4716 H         1 UNK         0.0837 
    106 H106      -76.9673   24.0629  -76.4537 H         1 UNK         0.3020 
    107 H107      -73.6619   23.4896  -75.3820 H         1 UNK         0.1245 
    108 H108      -75.5071   25.7770  -74.5430 H         1 UNK         0.0781 
    109 H109      -73.8209   25.9217  -74.9174 H         1 UNK         0.0781 
    110 H110      -75.5965   24.8836  -70.8686 H         1 UNK         0.0836 
    111 H111      -76.4644   24.6510  -72.3587 H         1 UNK         0.0836 
    112 H112      -76.2003   23.2978  -74.0770 H         1 UNK         0.3022 
    113 H113      -77.4247   20.4334  -75.5290 H         1 UNK         0.0747 
    114 H114      -77.1089   19.0704  -73.4855 H         1 UNK         0.0793 
    115 H115      -75.5969   19.1711  -74.3673 H         1 UNK         0.0793 
    116 H116      -75.8297   20.1501  -72.9261 H         1 UNK         0.0793 
    117 H117      -78.1157   21.2234  -72.9877 H         1 UNK         0.3047 
    118 H118      -80.3373   22.1544  -73.0291 H         1 UNK         0.0822 
    119 H119      -80.0154   23.9758  -71.3817 H         1 UNK         0.0807 
    120 H120      -78.8042   24.7479  -72.3927 H         1 UNK         0.0807 
    121 H121      -78.4643   23.1991  -71.6217 H         1 UNK         0.0807 
    122 H122      -80.3698   24.3280  -74.9063 H         1 UNK         0.2946 
    123 H123      -83.0965   24.7523  -75.4209 H         1 UNK         0.1144 
    124 H124      -84.4834   26.5795  -74.3984 H         1 UNK         0.0793 
    125 H125      -83.6672   26.3440  -72.8535 H         1 UNK         0.0793 
    126 H126      -84.6859   25.0741  -73.5215 H         1 UNK         0.0793 
    127 H127      -81.0255   26.4361  -74.2533 H         1 UNK         0.2896 
@<TRIPOS>BOND
     1    1    2 1    
     2    1   67 1    
     3    1   68 1    
     4    1   69 1    
     5    2    3 2    
     6    2    4 am   BACKBONE|DICT|INTERRES
     7    4    5 1    
     8    4   70 1    
     9    5    6 1    
    10    5   65 1    
    11    5   71 1    
    12    6    7 1    
    13    6   72 1    
    14    6   73 1    
    15    7    8 1    
    16    8    9 1    
    17    8   74 1    
    18    8   75 1    
    19    9   10 ar   
    20    9   14 ar   
    21   10   11 ar   
    22   10   76 1    
    23   11   12 ar   
    24   11   48 1    
    25   12   13 ar   
    26   12   77 1    
    27   13   14 ar   
    28   13   15 1    
    29   14   78 1    
    30   15   16 1    
    31   15   79 1    
    32   15   80 1    
    33   16   17 1    
    34   17   18 1    
    35   17   81 1    
    36   17   82 1    
    37   18   19 1    
    38   18   22 1    
    39   18   83 1    
    40   19   20 am   BACKBONE|DICT|INTERRES
    41   19   21 2    
    42   20   84 1    
    43   20   85 1    
    44   22   23 am   BACKBONE|DICT|INTERRES
    45   22   86 1    
    46   23   24 2    
    47   23   25 1    
    48   25   26 1    
    49   25   27 1    
    50   25   87 1    
    51   26   88 1    
    52   26   89 1    
    53   26   90 1    
    54   27   28 am   BACKBONE|DICT|INTERRES
    55   27   91 1    
    56   28   29 2    
    57   28   30 1    
    58   30   31 1    
    59   30   32 1    
    60   30   92 1    
    61   31   93 1    
    62   31   94 1    
    63   31   95 1    
    64   32   33 am   BACKBONE|DICT|INTERRES
    65   32   96 1    
    66   33   34 2    
    67   33   35 1    
    68   35   36 1    
    69   35   37 1    
    70   35   97 1    
    71   36   98 1    
    72   36   99 1    
    73   36  100 1    
    74   37   38 am   BACKBONE|DICT|INTERRES
    75   37  101 1    
    76   38   39 2    
    77   38   40 1    
    78   40   41 1    
    79   40   42 1    
    80   40  102 1    
    81   41  103 1    
    82   41  104 1    
    83   41  105 1    
    84   42   43 am   BACKBONE|DICT|INTERRES
    85   42  106 1    
    86   43   44 2    
    87   43   45 1    
    88   45   46 1    
    89   45   49 1    
    90   45  107 1    
    91   46   47 1    
    92   46  108 1    
    93   46  109 1    
    94   47   48 1    
    95   48  110 1    
    96   48  111 1    
    97   49   50 am   BACKBONE|DICT|INTERRES
    98   49  112 1    
    99   50   51 2    
   100   50   52 1    
   101   52   53 1    
   102   52   54 1    
   103   52  113 1    
   104   53  114 1    
   105   53  115 1    
   106   53  116 1    
   107   54   55 am   BACKBONE|DICT|INTERRES
   108   54  117 1    
   109   55   56 2    
   110   55   57 1    
   111   57   58 1    
   112   57   59 1    
   113   57  118 1    
   114   58  119 1    
   115   58  120 1    
   116   58  121 1    
   117   59   60 am   BACKBONE|DICT|INTERRES
   118   59  122 1    
   119   60   61 2    
   120   60   62 1    
   121   62   63 1    
   122   62   64 1    
   123   62  123 1    
   124   63  124 1    
   125   63  125 1    
   126   63  126 1    
   127   64   65 am   BACKBONE|DICT|INTERRES
   128   64  127 1    
   129   65   66 2    
@<TRIPOS>SUBSTRUCTURE
     1 UNK         1 GROUP             0       ****    0 ROOT    
