@<TRIPOS>MOLECULE
3R135
127   129    1
SMALL
USER_CHARGES


@<TRIPOS>ATOM
      1 CA        -83.8604   25.5189  -75.2494 C.3       0 UNK        -0.1998 
      2 C         -82.7901   26.5976  -75.3079 C.2       0 UNK         0.4909 
      3 O         -82.2500   26.8675  -76.3810 O.2       0 UNK        -0.5240 
      4 N         -82.4765   27.2210  -74.1652 N.am      1 UNK        -0.4739 
      5 CA        -81.4333   28.2433  -74.0365 C.3       1 UNK         0.0864 
      6 C6        -81.5460   29.0244  -72.7023 C.3       11 UNK        -0.0881 
      7 S7        -81.4940   27.9874  -71.1956 S.3       11 UNK        -0.2682 
      8 C8        -80.2364   28.8377  -70.1884 C.3       11 UNK         0.0289 
      9 C9        -78.8249   28.6060  -70.7087 C.ar      11 UNK        -0.0687 
     10 C10       -78.1401   27.4325  -70.3814 C.ar      11 UNK        -0.0823 
     11 C11       -76.8365   27.2167  -70.8396 C.ar      11 UNK        -0.0830 
     12 C12       -76.2203   28.1829  -71.6405 C.ar      11 UNK        -0.1021 
     13 C13       -76.8918   29.3663  -71.9651 C.ar      11 UNK        -0.0753 
     14 C14       -78.1911   29.5728  -71.4936 C.ar      11 UNK        -0.0933 
     15 C15       -76.2349   30.4192  -72.8433 C.3       11 UNK         0.0166 
     16 S16       -75.4455   31.7417  -71.8728 S.3       11 UNK        -0.2615 
     17 C17       -73.8511   30.9904  -71.3942 C.3       11 UNK        -0.0865 
     18 CA        -72.6932   31.3954  -72.3461 C.3       10 UNK         0.0862 
     19 C         -71.3114   30.9661  -71.7679 C.2       10 UNK         0.5551 
     20 N         -70.5232   30.1364  -72.4423 N.am      10 UNK        -0.7319 
     21 O         -70.9432   31.4048  -70.6811 O.2       10 UNK        -0.5018 
     22 N         -72.9431   30.9292  -73.7180 N.am      10 UNK        -0.4509 
     23 C         -72.4253   31.4636  -74.8298 C.2       10 UNK         0.4899 
     24 O         -71.7344   32.4835  -74.8416 O.2       10 UNK        -0.4839 
     25 CA        -72.7350   30.7211  -76.1493 C.3       9 UNK         0.0222 
     26 CB        -71.6832   31.0018  -77.2432 C.3       9 UNK        -0.1966 
     27 N         -72.9304   29.2699  -75.9886 N.am      9 UNK        -0.4218 
     28 C         -72.0627   28.3895  -75.4628 C.2       9 UNK         0.5020 
     29 O         -70.9652   28.7024  -74.9992 O.2       9 UNK        -0.5274 
     30 CA        -72.5052   26.9171  -75.3860 C.3       8 UNK         0.0270 
     31 CB        -72.9866   26.5903  -73.9632 C.3       8 UNK        -0.1976 
     32 N         -73.5454   26.5282  -76.3454 N.am      8 UNK        -0.4313 
     33 C         -73.3936   26.4937  -77.6768 C.2       8 UNK         0.5041 
     34 O         -72.3653   26.8376  -78.2621 O.2       8 UNK        -0.5577 
     35 CA        -74.6072   25.9764  -78.4679 C.3       7 UNK         0.0284 
     36 CB        -74.3756   25.9233  -79.9935 C.3       7 UNK        -0.1958 
     37 N         -75.0799   24.6882  -77.9461 N.am      7 UNK        -0.4454 
     38 C         -74.4409   23.5092  -77.9700 C.2       7 UNK         0.5089 
     39 O         -73.3330   23.3318  -78.4791 O.2       7 UNK        -0.5125 
     40 CA        -75.1905   22.3237  -77.3302 C.3       6 UNK         0.0408 
     41 CB        -74.3045   21.0722  -77.1502 C.3       6 UNK        -0.1791 
     42 N         -75.8746   22.6673  -76.0773 N.am      6 UNK        -0.4762 
     43 C         -75.3171   23.0628  -74.9194 C.2       6 UNK         0.5007 
     44 O         -74.1060   23.2292  -74.7769 O.2       6 UNK        -0.5032 
     45 CA        -76.2617   23.2885  -73.7148 C.3       5 UNK         0.0783 
     46 C46       -75.8069   24.4555  -72.8019 C.3       11 UNK        -0.0857 
     47 S47       -76.7495   24.4713  -71.2420 S.3       11 UNK        -0.2512 
     48 C48       -76.0882   25.9569  -70.4280 C.3       11 UNK         0.0225 
     49 N         -77.6425   23.4765  -74.1630 N.am      5 UNK        -0.4615 
     50 C         -78.6019   22.5438  -74.1657 C.2       4 UNK         0.5053 
     51 O         -78.4540   21.4037  -73.7263 O.2       4 UNK        -0.5105 
     52 CA        -79.9435   22.9374  -74.8106 C.3       4 UNK         0.0263 
     53 CB        -80.9712   23.3166  -73.7325 C.3       4 UNK        -0.1981 
     54 N         -79.8027   24.0330  -75.7786 N.am      4 UNK        -0.4224 
     55 C         -79.1880   23.9053  -76.9660 C.2       3 UNK         0.4895 
     56 O         -78.7444   22.8379  -77.3892 O.2       3 UNK        -0.5091 
     57 CA        -78.9682   25.1785  -77.7995 C.3       3 UNK         0.0250 
     58 CB        -80.1103   25.3697  -78.8088 C.3       3 UNK        -0.1996 
     59 N         -78.8170   26.3869  -76.9855 N.am      3 UNK        -0.4254 
     60 C         -77.7795   26.6362  -76.1720 C.2       2 UNK         0.5004 
     61 O         -76.8218   25.8756  -76.0302 O.2       2 UNK        -0.5226 
     62 CA        -77.8177   27.9439  -75.3645 C.3       2 UNK         0.0269 
     63 CB        -77.1214   29.0580  -76.1631 C.3       2 UNK        -0.1926 
     64 N         -79.1698   28.3769  -74.9889 N.am      2 UNK        -0.4687 
     65 C         -80.0312   27.6404  -74.2703 C.2       1 UNK         0.5165 
     66 O         -79.7683   26.5131  -73.8455 O.2       1 UNK        -0.5079 
     67 H67       -84.7682   25.8663  -75.7416 H         1 UNK         0.0900 
     68 H68       -83.5180   24.6212  -75.7632 H         1 UNK         0.0900 
     69 H69       -84.1091   25.2490  -74.2232 H         1 UNK         0.0900 
     70 H70       -82.9121   26.9396  -73.2982 H         1 UNK         0.2959 
     71 H71       -81.6086   28.9635  -74.8392 H         1 UNK         0.1079 
     72 H72       -82.4927   29.5666  -72.6868 H         1 UNK         0.0837 
     73 H73       -80.7787   29.7972  -72.6554 H         1 UNK         0.0837 
     74 H74       -80.3068   28.4725  -69.1628 H         1 UNK         0.0685 
     75 H75       -80.4631   29.9042  -70.1442 H         1 UNK         0.0685 
     76 H76       -78.6223   26.6849  -69.7662 H         1 UNK         0.1434 
     77 H77       -75.2147   28.0184  -71.9984 H         1 UNK         0.1329 
     78 H78       -78.7065   30.4910  -71.7388 H         1 UNK         0.1335 
     79 H79       -76.9946   30.8798  -73.4756 H         1 UNK         0.0680 
     80 H80       -75.5159   29.9597  -73.5211 H         1 UNK         0.0680 
     81 H81       -73.9440   29.9061  -71.3332 H         1 UNK         0.1032 
     82 H82       -73.6392   31.3250  -70.3768 H         1 UNK         0.1032 
     83 H83       -72.6664   32.4866  -72.3732 H         1 UNK         0.0461 
     84 H84       -69.6331   29.8796  -72.0467 H         1 UNK         0.3453 
     85 H85       -70.7922   29.7665  -73.3483 H         1 UNK         0.3453 
     86 H86       -73.4761   30.0797  -73.8061 H         1 UNK         0.2984 
     87 H87       -73.6885   31.1187  -76.4996 H         1 UNK         0.0554 
     88 H88       -71.6286   32.0665  -77.4737 H         1 UNK         0.0847 
     89 H89       -71.9270   30.4836  -78.1707 H         1 UNK         0.0847 
     90 H90       -70.6866   30.6841  -76.9349 H         1 UNK         0.0847 
     91 H91       -73.8030   28.9028  -76.3375 H         1 UNK         0.3141 
     92 H92       -71.6213   26.3104  -75.5940 H         1 UNK         0.0743 
     93 H93       -72.2684   26.9259  -73.2133 H         1 UNK         0.0784 
     94 H94       -73.1026   25.5160  -73.8296 H         1 UNK         0.0784 
     95 H95       -73.9415   27.0656  -73.7406 H         1 UNK         0.0784 
     96 H96       -74.4199   26.1915  -75.9627 H         1 UNK         0.3213 
     97 H97       -75.4119   26.6920  -78.2932 H         1 UNK         0.0855 
     98 H98       -73.5424   25.2726  -80.2597 H         1 UNK         0.0814 
     99 H99       -74.1456   26.9151  -80.3846 H         1 UNK         0.0814 
    100 H100      -75.2621   25.5660  -80.5173 H         1 UNK         0.0814 
    101 H101      -75.9321   24.7427  -77.3970 H         1 UNK         0.3105 
    102 H102      -75.9804   22.0596  -78.0349 H         1 UNK         0.0547 
    103 H103      -74.8684   20.2442  -76.7213 H         1 UNK         0.0837 
    104 H104      -73.4499   21.2690  -76.5022 H         1 UNK         0.0837 
    105 H105      -73.9110   20.7315  -78.1087 H         1 UNK         0.0837 
    106 H106      -76.8835   22.5844  -76.1071 H         1 UNK         0.3020 
    107 H107      -76.1933   22.3696  -73.1280 H         1 UNK         0.1245 
    108 H108      -75.9238   25.4155  -73.3079 H         1 UNK         0.0781 
    109 H109      -74.7523   24.3597  -72.5394 H         1 UNK         0.0781 
    110 H110      -75.0199   26.0474  -70.6311 H         1 UNK         0.0836 
    111 H111      -76.1793   25.8307  -69.3482 H         1 UNK         0.0836 
    112 H112      -77.8506   24.3866  -74.5517 H         1 UNK         0.3022 
    113 H113      -80.3204   22.0616  -75.3432 H         1 UNK         0.0747 
    114 H114      -81.9397   23.5524  -74.1704 H         1 UNK         0.0793 
    115 H115      -81.1255   22.4902  -73.0374 H         1 UNK         0.0793 
    116 H116      -80.6468   24.1749  -73.1437 H         1 UNK         0.0793 
    117 H117      -80.0867   24.9542  -75.4676 H         1 UNK         0.3047 
    118 H118      -78.0437   25.0425  -78.3646 H         1 UNK         0.0822 
    119 H119      -79.9402   26.2400  -79.4427 H         1 UNK         0.0807 
    120 H120      -81.0730   25.4970  -78.3135 H         1 UNK         0.0807 
    121 H121      -80.1967   24.5035  -79.4663 H         1 UNK         0.0807 
    122 H122      -79.5749   27.0552  -77.0187 H         1 UNK         0.2946 
    123 H123      -77.2620   27.7681  -74.4409 H         1 UNK         0.1144 
    124 H124      -77.1024   29.9994  -75.6173 H         1 UNK         0.0793 
    125 H125      -77.6199   29.2417  -77.1160 H         1 UNK         0.0793 
    126 H126      -76.0880   28.7910  -76.3848 H         1 UNK         0.0793 
    127 H127      -79.4576   29.2880  -75.3163 H         1 UNK         0.2896 
@<TRIPOS>BOND
     1    1    2 1    
     2    1   67 1    
     3    1   68 1    
     4    1   69 1    
     5    2    3 2    
     6    2    4 am   BACKBONE|DICT|INTERRES
     7    4    5 1    
     8    4   70 1    
     9    5    6 1    
    10    5   65 1    
    11    5   71 1    
    12    6    7 1    
    13    6   72 1    
    14    6   73 1    
    15    7    8 1    
    16    8    9 1    
    17    8   74 1    
    18    8   75 1    
    19    9   10 ar   
    20    9   14 ar   
    21   10   11 ar   
    22   10   76 1    
    23   11   12 ar   
    24   11   48 1    
    25   12   13 ar   
    26   12   77 1    
    27   13   14 ar   
    28   13   15 1    
    29   14   78 1    
    30   15   16 1    
    31   15   79 1    
    32   15   80 1    
    33   16   17 1    
    34   17   18 1    
    35   17   81 1    
    36   17   82 1    
    37   18   19 1    
    38   18   22 1    
    39   18   83 1    
    40   19   20 am   BACKBONE|DICT|INTERRES
    41   19   21 2    
    42   20   84 1    
    43   20   85 1    
    44   22   23 am   BACKBONE|DICT|INTERRES
    45   22   86 1    
    46   23   24 2    
    47   23   25 1    
    48   25   26 1    
    49   25   27 1    
    50   25   87 1    
    51   26   88 1    
    52   26   89 1    
    53   26   90 1    
    54   27   28 am   BACKBONE|DICT|INTERRES
    55   27   91 1    
    56   28   29 2    
    57   28   30 1    
    58   30   31 1    
    59   30   32 1    
    60   30   92 1    
    61   31   93 1    
    62   31   94 1    
    63   31   95 1    
    64   32   33 am   BACKBONE|DICT|INTERRES
    65   32   96 1    
    66   33   34 2    
    67   33   35 1    
    68   35   36 1    
    69   35   37 1    
    70   35   97 1    
    71   36   98 1    
    72   36   99 1    
    73   36  100 1    
    74   37   38 am   BACKBONE|DICT|INTERRES
    75   37  101 1    
    76   38   39 2    
    77   38   40 1    
    78   40   41 1    
    79   40   42 1    
    80   40  102 1    
    81   41  103 1    
    82   41  104 1    
    83   41  105 1    
    84   42   43 am   BACKBONE|DICT|INTERRES
    85   42  106 1    
    86   43   44 2    
    87   43   45 1    
    88   45   46 1    
    89   45   49 1    
    90   45  107 1    
    91   46   47 1    
    92   46  108 1    
    93   46  109 1    
    94   47   48 1    
    95   48  110 1    
    96   48  111 1    
    97   49   50 am   BACKBONE|DICT|INTERRES
    98   49  112 1    
    99   50   51 2    
   100   50   52 1    
   101   52   53 1    
   102   52   54 1    
   103   52  113 1    
   104   53  114 1    
   105   53  115 1    
   106   53  116 1    
   107   54   55 am   BACKBONE|DICT|INTERRES
   108   54  117 1    
   109   55   56 2    
   110   55   57 1    
   111   57   58 1    
   112   57   59 1    
   113   57  118 1    
   114   58  119 1    
   115   58  120 1    
   116   58  121 1    
   117   59   60 am   BACKBONE|DICT|INTERRES
   118   59  122 1    
   119   60   61 2    
   120   60   62 1    
   121   62   63 1    
   122   62   64 1    
   123   62  123 1    
   124   63  124 1    
   125   63  125 1    
   126   63  126 1    
   127   64   65 am   BACKBONE|DICT|INTERRES
   128   64  127 1    
   129   65   66 2    
@<TRIPOS>SUBSTRUCTURE
     1 UNK         1 GROUP             0       ****    0 ROOT    
