@<TRIPOS>MOLECULE
3R135
127   129    1
SMALL
USER_CHARGES


@<TRIPOS>ATOM
      1 CA        -86.4750   27.8852  -72.6529 C.3       0 UNK        -0.1998 
      2 C         -85.3375   28.0075  -73.6560 C.2       0 UNK         0.4909 
      3 O         -85.5661   28.4229  -74.7930 O.2       0 UNK        -0.5240 
      4 N         -84.1129   27.6574  -73.2422 N.am      1 UNK        -0.4739 
      5 CA        -82.9197   27.6411  -74.0951 C.3       1 UNK         0.0864 
      6 C6        -81.6203   27.6654  -73.2442 C.3       11 UNK        -0.0881 
      7 S7        -80.2537   28.5126  -74.1142 S.3       11 UNK        -0.2682 
      8 C8        -79.8813   29.9020  -72.9842 C.3       11 UNK         0.0289 
      9 C9        -78.7270   29.6122  -72.0259 C.ar      11 UNK        -0.0687 
     10 C10       -78.6137   28.3802  -71.3716 C.ar      11 UNK        -0.0823 
     11 C11       -77.5143   28.1057  -70.5527 C.ar      11 UNK        -0.0830 
     12 C12       -76.5549   29.0969  -70.3294 C.ar      11 UNK        -0.1021 
     13 C13       -76.6538   30.3315  -70.9764 C.ar      11 UNK        -0.0753 
     14 C14       -77.7437   30.5851  -71.8152 C.ar      11 UNK        -0.0933 
     15 C15       -75.5596   31.3754  -70.8103 C.3       11 UNK         0.0166 
     16 S16       -74.3297   31.2701  -72.1523 S.3       11 UNK        -0.2615 
     17 C17       -73.4463   29.7334  -71.7165 C.3       11 UNK        -0.0865 
     18 CA        -72.0779   29.6084  -72.4321 C.3       10 UNK         0.0862 
     19 C         -71.2787   28.4038  -71.8750 C.2       10 UNK         0.5551 
     20 N         -70.2290   28.6528  -71.1048 N.am      10 UNK        -0.7319 
     21 O         -71.6313   27.2484  -72.1015 O.2       10 UNK        -0.5018 
     22 N         -72.2331   29.4637  -73.8841 N.am      10 UNK        -0.4509 
     23 C         -71.3600   29.9121  -74.7920 C.2       10 UNK         0.4899 
     24 O         -70.3836   30.6154  -74.5249 O.2       10 UNK        -0.4839 
     25 CA        -71.6269   29.4646  -76.2401 C.3       9 UNK         0.0222 
     26 CB        -70.6810   30.1160  -77.2717 C.3       9 UNK        -0.1966 
     27 N         -71.6163   28.0019  -76.3504 N.am      9 UNK        -0.4218 
     28 C         -70.5919   27.1631  -76.1285 C.2       9 UNK         0.5020 
     29 O         -69.4434   27.5238  -75.8681 O.2       9 UNK        -0.5274 
     30 CA        -70.8927   25.6533  -76.1977 C.3       8 UNK         0.0270 
     31 CB        -71.0324   25.0721  -74.7817 C.3       8 UNK        -0.1976 
     32 N         -72.0956   25.3213  -76.9654 N.am      8 UNK        -0.4313 
     33 C         -72.2120   25.4190  -78.2970 C.2       8 UNK         0.5041 
     34 O         -71.2956   25.7634  -79.0441 O.2       8 UNK        -0.5577 
     35 CA        -73.5943   25.1014  -78.8896 C.3       7 UNK         0.0284 
     36 CB        -73.7963   23.5842  -79.0368 C.3       7 UNK        -0.1958 
     37 N         -74.6724   25.6685  -78.0766 N.am      7 UNK        -0.4454 
     38 C         -75.0010   26.9680  -78.0553 C.2       7 UNK         0.5089 
     39 O         -74.4797   27.8201  -78.7741 O.2       7 UNK        -0.5125 
     40 CA        -76.0719   27.3954  -77.0386 C.3       6 UNK         0.0408 
     41 CB        -77.4784   27.2947  -77.6500 C.3       6 UNK        -0.1791 
     42 N         -76.0121   26.6080  -75.8053 N.am      6 UNK        -0.4762 
     43 C         -75.0631   26.7576  -74.8677 C.2       6 UNK         0.5007 
     44 O         -74.1524   27.5811  -74.9505 O.2       6 UNK        -0.5032 
     45 CA        -75.1364   25.8478  -73.6225 C.3       5 UNK         0.0783 
     46 C46       -76.0730   26.5162  -72.5949 C.3       11 UNK        -0.0857 
     47 S47       -75.9710   25.8047  -70.9163 S.3       11 UNK        -0.2512 
     48 C48       -77.2989   26.6957  -70.0177 C.3       11 UNK         0.0225 
     49 N         -75.5794   24.4839  -73.9198 N.am      5 UNK        -0.4615 
     50 C         -75.0917   23.6649  -74.8607 C.2       4 UNK         0.5053 
     51 O         -74.0877   23.9082  -75.5287 O.2       4 UNK        -0.5105 
     52 CA        -75.9169   22.3994  -75.1676 C.3       4 UNK         0.0263 
     53 CB        -75.3297   21.1874  -74.4285 C.3       4 UNK        -0.1981 
     54 N         -77.3482   22.5256  -74.8464 N.am      4 UNK        -0.4224 
     55 C         -78.1690   23.4704  -75.3320 C.2       3 UNK         0.4895 
     56 O         -77.8149   24.3254  -76.1479 O.2       3 UNK        -0.5091 
     57 CA        -79.5838   23.5169  -74.7343 C.3       3 UNK         0.0250 
     58 CB        -79.5322   23.9228  -73.2490 C.3       3 UNK        -0.1996 
     59 N         -80.4119   24.4937  -75.4382 N.am      3 UNK        -0.4254 
     60 C         -81.1395   24.2586  -76.5370 C.2       2 UNK         0.5004 
     61 O         -81.2322   23.1514  -77.0707 O.2       2 UNK        -0.5226 
     62 CA        -81.8868   25.4723  -77.1354 C.3       2 UNK         0.0269 
     63 CB        -83.1641   25.0674  -77.9026 C.3       2 UNK        -0.1926 
     64 N         -82.1745   26.5301  -76.1504 N.am      2 UNK        -0.4687 
     65 C         -82.9351   26.4258  -75.0486 C.2       1 UNK         0.5165 
     66 O         -83.5686   25.4120  -74.7421 O.2       1 UNK        -0.5079 
     67 H67       -87.2296   27.1927  -73.0248 H         1 UNK         0.0900 
     68 H68       -86.1287   27.5217  -71.6856 H         1 UNK         0.0900 
     69 H69       -86.9475   28.8553  -72.5010 H         1 UNK         0.0900 
     70 H70       -83.9936   27.2863  -72.3105 H         1 UNK         0.2959 
     71 H71       -82.9574   28.5457  -74.7074 H         1 UNK         0.1079 
     72 H72       -81.3005   26.6603  -72.9608 H         1 UNK         0.0837 
     73 H73       -81.8011   28.1804  -72.2998 H         1 UNK         0.0837 
     74 H74       -79.6349   30.7638  -73.6062 H         1 UNK         0.0685 
     75 H75       -80.7659   30.1891  -72.4151 H         1 UNK         0.0685 
     76 H76       -79.3494   27.6089  -71.5473 H         1 UNK         0.1434 
     77 H77       -75.6960   28.8797  -69.7092 H         1 UNK         0.1329 
     78 H78       -77.8094   31.5366  -72.3253 H         1 UNK         0.1335 
     79 H79       -75.0652   31.2677  -69.8436 H         1 UNK         0.0680 
     80 H80       -76.0015   32.3730  -70.8159 H         1 UNK         0.0680 
     81 H81       -74.0793   28.8786  -71.9526 H         1 UNK         0.1032 
     82 H82       -73.3053   29.7195  -70.6339 H         1 UNK         0.1032 
     83 H83       -71.5159   30.5216  -72.2240 H         1 UNK         0.0461 
     84 H84       -69.7089   27.8790  -70.7218 H         1 UNK         0.3453 
     85 H85       -69.9373   29.5981  -70.9101 H         1 UNK         0.3453 
     86 H86       -72.9725   28.8382  -74.1947 H         1 UNK         0.2984 
     87 H87       -72.6427   29.7807  -76.4830 H         1 UNK         0.0554 
     88 H88       -70.7732   31.2024  -77.2491 H         1 UNK         0.0847 
     89 H89       -70.9169   29.7907  -78.2849 H         1 UNK         0.0847 
     90 H90       -69.6349   29.8774  -77.0781 H         1 UNK         0.0847 
     91 H91       -72.5285   27.5809  -76.4720 H         1 UNK         0.3141 
     92 H92       -70.0401   25.1728  -76.6820 H         1 UNK         0.0743 
     93 H93       -70.1450   25.2794  -74.1820 H         1 UNK         0.0784 
     94 H94       -71.8861   25.5011  -74.2562 H         1 UNK         0.0784 
     95 H95       -71.1639   23.9902  -74.8063 H         1 UNK         0.0784 
     96 H96       -72.8819   24.9443  -76.4376 H         1 UNK         0.3213 
     97 H97       -73.6413   25.5468  -79.8861 H         1 UNK         0.0855 
     98 H98       -73.7585   23.0704  -78.0758 H         1 UNK         0.0814 
     99 H99       -73.0196   23.1495  -79.6675 H         1 UNK         0.0814 
    100 H100      -74.7554   23.3554  -79.5016 H         1 UNK         0.0814 
    101 H101      -75.1339   25.0485  -77.4255 H         1 UNK         0.3105 
    102 H102      -75.8920   28.4423  -76.7842 H         1 UNK         0.0547 
    103 H103      -77.5656   27.9337  -78.5296 H         1 UNK         0.0837 
    104 H104      -78.2433   27.6122  -76.9410 H         1 UNK         0.0837 
    105 H105      -77.7135   26.2772  -77.9641 H         1 UNK         0.0837 
    106 H106      -76.7077   25.8736  -75.7033 H         1 UNK         0.3020 
    107 H107      -74.1288   25.7897  -73.2047 H         1 UNK         0.1245 
    108 H108      -77.1088   26.4694  -72.9368 H         1 UNK         0.0781 
    109 H109      -75.8326   27.5764  -72.5154 H         1 UNK         0.0781 
    110 H110      -77.0485   26.7378  -68.9568 H         1 UNK         0.0836 
    111 H111      -78.2200   26.1152  -70.0903 H         1 UNK         0.0836 
    112 H112      -76.3883   24.1722  -73.4048 H         1 UNK         0.3022 
    113 H113      -75.8384   22.2184  -76.2416 H         1 UNK         0.0747 
    114 H114      -74.2732   21.0586  -74.6690 H         1 UNK         0.0793 
    115 H115      -75.4062   21.2977  -73.3460 H         1 UNK         0.0793 
    116 H116      -75.8379   20.2650  -74.7104 H         1 UNK         0.0793 
    117 H117      -77.7166   21.8630  -74.1786 H         1 UNK         0.3047 
    118 H118      -80.0319   22.5247  -74.8213 H         1 UNK         0.0822 
    119 H119      -80.5339   23.9745  -72.8214 H         1 UNK         0.0807 
    120 H120      -79.0624   24.8974  -73.1098 H         1 UNK         0.0807 
    121 H121      -78.9715   23.2011  -72.6539 H         1 UNK         0.0807 
    122 H122      -80.3540   25.4465  -75.1118 H         1 UNK         0.2946 
    123 H123      -81.1968   25.9097  -77.8592 H         1 UNK         0.1144 
    124 H124      -83.8748   24.5450  -77.2617 H         1 UNK         0.0793 
    125 H125      -82.9272   24.4007  -78.7327 H         1 UNK         0.0793 
    126 H126      -83.6675   25.9379  -78.3229 H         1 UNK         0.0793 
    127 H127      -81.6749   27.3983  -76.2929 H         1 UNK         0.2896 
@<TRIPOS>BOND
     1    1    2 1    
     2    1   67 1    
     3    1   68 1    
     4    1   69 1    
     5    2    3 2    
     6    2    4 am   BACKBONE|DICT|INTERRES
     7    4    5 1    
     8    4   70 1    
     9    5    6 1    
    10    5   65 1    
    11    5   71 1    
    12    6    7 1    
    13    6   72 1    
    14    6   73 1    
    15    7    8 1    
    16    8    9 1    
    17    8   74 1    
    18    8   75 1    
    19    9   10 ar   
    20    9   14 ar   
    21   10   11 ar   
    22   10   76 1    
    23   11   12 ar   
    24   11   48 1    
    25   12   13 ar   
    26   12   77 1    
    27   13   14 ar   
    28   13   15 1    
    29   14   78 1    
    30   15   16 1    
    31   15   79 1    
    32   15   80 1    
    33   16   17 1    
    34   17   18 1    
    35   17   81 1    
    36   17   82 1    
    37   18   19 1    
    38   18   22 1    
    39   18   83 1    
    40   19   20 am   BACKBONE|DICT|INTERRES
    41   19   21 2    
    42   20   84 1    
    43   20   85 1    
    44   22   23 am   BACKBONE|DICT|INTERRES
    45   22   86 1    
    46   23   24 2    
    47   23   25 1    
    48   25   26 1    
    49   25   27 1    
    50   25   87 1    
    51   26   88 1    
    52   26   89 1    
    53   26   90 1    
    54   27   28 am   BACKBONE|DICT|INTERRES
    55   27   91 1    
    56   28   29 2    
    57   28   30 1    
    58   30   31 1    
    59   30   32 1    
    60   30   92 1    
    61   31   93 1    
    62   31   94 1    
    63   31   95 1    
    64   32   33 am   BACKBONE|DICT|INTERRES
    65   32   96 1    
    66   33   34 2    
    67   33   35 1    
    68   35   36 1    
    69   35   37 1    
    70   35   97 1    
    71   36   98 1    
    72   36   99 1    
    73   36  100 1    
    74   37   38 am   BACKBONE|DICT|INTERRES
    75   37  101 1    
    76   38   39 2    
    77   38   40 1    
    78   40   41 1    
    79   40   42 1    
    80   40  102 1    
    81   41  103 1    
    82   41  104 1    
    83   41  105 1    
    84   42   43 am   BACKBONE|DICT|INTERRES
    85   42  106 1    
    86   43   44 2    
    87   43   45 1    
    88   45   46 1    
    89   45   49 1    
    90   45  107 1    
    91   46   47 1    
    92   46  108 1    
    93   46  109 1    
    94   47   48 1    
    95   48  110 1    
    96   48  111 1    
    97   49   50 am   BACKBONE|DICT|INTERRES
    98   49  112 1    
    99   50   51 2    
   100   50   52 1    
   101   52   53 1    
   102   52   54 1    
   103   52  113 1    
   104   53  114 1    
   105   53  115 1    
   106   53  116 1    
   107   54   55 am   BACKBONE|DICT|INTERRES
   108   54  117 1    
   109   55   56 2    
   110   55   57 1    
   111   57   58 1    
   112   57   59 1    
   113   57  118 1    
   114   58  119 1    
   115   58  120 1    
   116   58  121 1    
   117   59   60 am   BACKBONE|DICT|INTERRES
   118   59  122 1    
   119   60   61 2    
   120   60   62 1    
   121   62   63 1    
   122   62   64 1    
   123   62  123 1    
   124   63  124 1    
   125   63  125 1    
   126   63  126 1    
   127   64   65 am   BACKBONE|DICT|INTERRES
   128   64  127 1    
   129   65   66 2    
@<TRIPOS>SUBSTRUCTURE
     1 UNK         1 GROUP             0       ****    0 ROOT    
