@<TRIPOS>MOLECULE
3R135
127   129    1
SMALL
USER_CHARGES


@<TRIPOS>ATOM
      1 CA        -84.2834   27.1265  -70.8966 C.3       0 UNK        -0.1998 
      2 C         -83.8343   27.3686  -72.3297 C.2       0 UNK         0.4909 
      3 O         -84.6567   27.3254  -73.2450 O.2       0 UNK        -0.5240 
      4 N         -82.5341   27.6228  -72.5299 N.am      1 UNK        -0.4739 
      5 CA        -81.9209   27.8670  -73.8436 C.3       1 UNK         0.0864 
      6 C6        -80.5548   28.5826  -73.7127 C.3       11 UNK        -0.0881 
      7 S7        -80.7381   30.3062  -73.1239 S.3       11 UNK        -0.2682 
      8 C8        -80.4488   30.1976  -71.3246 C.3       11 UNK         0.0289 
      9 C9        -79.0081   29.8362  -71.0000 C.ar      11 UNK        -0.0687 
     10 C10       -78.6727   28.5188  -70.6804 C.ar      11 UNK        -0.0823 
     11 C11       -77.3387   28.1555  -70.4814 C.ar      11 UNK        -0.0830 
     12 C12       -76.3427   29.1344  -70.5314 C.ar      11 UNK        -0.1021 
     13 C13       -76.6688   30.4610  -70.8253 C.ar      11 UNK        -0.0753 
     14 C14       -78.0041   30.8082  -71.0547 C.ar      11 UNK        -0.0933 
     15 C15       -75.5718   31.5097  -70.9282 C.3       11 UNK         0.0166 
     16 S16       -75.2571   32.0102  -72.6522 S.3       11 UNK        -0.2615 
     17 C17       -74.6294   30.4748  -73.4188 C.3       11 UNK        -0.0865 
     18 CA        -73.0803   30.4450  -73.5093 C.3       10 UNK         0.0862 
     19 C         -72.4370   29.8394  -72.2355 C.2       10 UNK         0.5551 
     20 N         -71.8040   30.6570  -71.4057 N.am      10 UNK        -0.7319 
     21 O         -72.5441   28.6428  -71.9758 O.2       10 UNK        -0.5018 
     22 N         -72.6411   29.7263  -74.7101 N.am      10 UNK        -0.4509 
     23 C         -71.4989   29.9691  -75.3640 C.2       10 UNK         0.4899 
     24 O         -70.6869   30.8323  -75.0250 O.2       10 UNK        -0.4839 
     25 CA        -71.2454   29.1276  -76.6286 C.3       9 UNK         0.0222 
     26 CB        -69.8664   29.3892  -77.2726 C.3       9 UNK        -0.1966 
     27 N         -71.4672   27.6942  -76.4169 N.am      9 UNK        -0.4218 
     28 C         -70.7877   26.8694  -75.6047 C.2       9 UNK         0.5020 
     29 O         -69.8378   27.2268  -74.9062 O.2       9 UNK        -0.5274 
     30 CA        -71.2256   25.3900  -75.5481 C.3       8 UNK         0.0270 
     31 CB        -71.7249   25.0339  -74.1373 C.3       8 UNK        -0.1976 
     32 N         -72.2600   25.0296  -76.5235 N.am      8 UNK        -0.4313 
     33 C         -72.0714   24.8821  -77.8423 C.2       8 UNK         0.5041 
     34 O         -70.9698   24.9507  -78.3879 O.2       8 UNK        -0.5577 
     35 CA        -73.3331   24.6818  -78.7044 C.3       7 UNK         0.0284 
     36 CB        -73.7315   23.1987  -78.7618 C.3       7 UNK        -0.1958 
     37 N         -74.4723   25.4853  -78.2440 N.am      7 UNK        -0.4454 
     38 C         -74.4937   26.8267  -78.2128 C.2       7 UNK         0.5089 
     39 O         -73.5773   27.5359  -78.6254 O.2       7 UNK        -0.5125 
     40 CA        -75.7052   27.4892  -77.5400 C.3       6 UNK         0.0408 
     41 CB        -76.8940   27.5976  -78.5079 C.3       6 UNK        -0.1791 
     42 N         -76.0995   26.7715  -76.3264 N.am      6 UNK        -0.4762 
     43 C         -75.4013   26.7971  -75.1808 C.2       6 UNK         0.5007 
     44 O         -74.3924   27.4829  -75.0179 O.2       6 UNK        -0.5032 
     45 CA        -75.8999   25.8939  -74.0338 C.3       5 UNK         0.0783 
     46 C46       -76.9383   26.6496  -73.1816 C.3       11 UNK        -0.0857 
     47 S47       -77.5172   25.6823  -71.7391 S.3       11 UNK        -0.2512 
     48 C48       -76.9609   26.6899  -70.3190 C.3       11 UNK         0.0225 
     49 N         -76.4356   24.6242  -74.5253 N.am      5 UNK        -0.4615 
     50 C         -75.7208   23.6694  -75.1296 C.2       4 UNK         0.5053 
     51 O         -74.5075   23.7363  -75.3136 O.2       4 UNK        -0.5105 
     52 CA        -76.5112   22.4690  -75.6726 C.3       4 UNK         0.0263 
     53 CB        -76.6845   21.3990  -74.5842 C.3       4 UNK        -0.1981 
     54 N         -77.8255   22.8491  -76.2005 N.am      4 UNK        -0.4224 
     55 C         -78.0379   23.6946  -77.2156 C.2       3 UNK         0.4895 
     56 O         -77.1266   24.2460  -77.8337 O.2       3 UNK        -0.5091 
     57 CA        -79.4963   24.0045  -77.6005 C.3       3 UNK         0.0250 
     58 CB        -80.0652   22.8901  -78.4991 C.3       3 UNK        -0.1996 
     59 N         -80.4156   24.3075  -76.4887 N.am      3 UNK        -0.4254 
     60 C         -80.8252   23.5268  -75.4790 C.2       2 UNK         0.5004 
     61 O         -80.3596   22.4082  -75.2522 O.2       2 UNK        -0.5226 
     62 CA        -81.9672   24.0708  -74.5918 C.3       2 UNK         0.0269 
     63 CB        -82.3166   23.1151  -73.4344 C.3       2 UNK        -0.1926 
     64 N         -81.7544   25.4106  -74.0294 N.am      2 UNK        -0.4687 
     65 C         -81.8215   26.5764  -74.6904 C.2       1 UNK         0.5165 
     66 O         -81.8572   26.6561  -75.9192 O.2       1 UNK        -0.5079 
     67 H67       -84.7125   26.1294  -70.8016 H         1 UNK         0.0900 
     68 H68       -83.4580   27.2095  -70.1899 H         1 UNK         0.0900 
     69 H69       -85.0445   27.8534  -70.6147 H         1 UNK         0.0900 
     70 H70       -81.9090   27.6517  -71.7387 H         1 UNK         0.2959 
     71 H71       -82.5881   28.5303  -74.3996 H         1 UNK         0.1079 
     72 H72       -80.0599   28.6364  -74.6846 H         1 UNK         0.0837 
     73 H73       -79.8794   28.0221  -73.0678 H         1 UNK         0.0837 
     74 H74       -80.6872   31.1626  -70.8749 H         1 UNK         0.0685 
     75 H75       -81.1398   29.4808  -70.8805 H         1 UNK         0.0685 
     76 H76       -79.4401   27.7577  -70.6517 H         1 UNK         0.1434 
     77 H77       -75.3067   28.8570  -70.3884 H         1 UNK         0.1329 
     78 H78       -78.2569   31.8286  -71.3091 H         1 UNK         0.1335 
     79 H79       -74.6442   31.1496  -70.4807 H         1 UNK         0.0680 
     80 H80       -75.8640   32.3905  -70.3548 H         1 UNK         0.0680 
     81 H81       -75.0599   30.4472  -74.4213 H         1 UNK         0.1032 
     82 H82       -75.0250   29.5887  -72.9218 H         1 UNK         0.1032 
     83 H83       -72.7356   31.4765  -73.6126 H         1 UNK         0.0461 
     84 H84       -71.3900   30.2815  -70.5671 H         1 UNK         0.3453 
     85 H85       -71.7188   31.6404  -71.6107 H         1 UNK         0.3453 
     86 H86       -73.2152   28.9314  -74.9827 H         1 UNK         0.2984 
     87 H87       -72.0007   29.4416  -77.3503 H         1 UNK         0.0554 
     88 H88       -69.7593   30.4382  -77.5511 H         1 UNK         0.0847 
     89 H89       -69.7345   28.7992  -78.1796 H         1 UNK         0.0847 
     90 H90       -69.0472   29.1499  -76.5941 H         1 UNK         0.0847 
     91 H91       -72.2334   27.3021  -76.9510 H         1 UNK         0.3141 
     92 H92       -70.3405   24.7857  -75.7571 H         1 UNK         0.0743 
     93 H93       -70.9532   25.2197  -73.3891 H         1 UNK         0.0784 
     94 H94       -72.5951   25.6287  -73.8588 H         1 UNK         0.0784 
     95 H95       -71.9982   23.9811  -74.0644 H         1 UNK         0.0784 
     96 H96       -73.1873   24.8439  -76.1486 H         1 UNK         0.3213 
     97 H97       -73.0929   25.0076  -79.7188 H         1 UNK         0.0855 
     98 H98       -73.9588   22.8009  -77.7732 H         1 UNK         0.0814 
     99 H99       -72.9222   22.5956  -79.1754 H         1 UNK         0.0814 
    100 H100      -74.6066   23.0457  -79.3938 H         1 UNK         0.0814 
    101 H101      -75.2982   24.9839  -77.9282 H         1 UNK         0.3105 
    102 H102      -75.4163   28.5037  -77.2560 H         1 UNK         0.0547 
    103 H103      -76.6260   28.1932  -79.3814 H         1 UNK         0.0837 
    104 H104      -77.7476   28.0839  -78.0357 H         1 UNK         0.0837 
    105 H105      -77.2209   26.6240  -78.8717 H         1 UNK         0.0837 
    106 H106      -76.8821   26.1380  -76.4066 H         1 UNK         0.3020 
    107 H107      -75.0361   25.6699  -73.4037 H         1 UNK         0.1245 
    108 H108      -77.8127   26.9062  -73.7821 H         1 UNK         0.0781 
    109 H109      -76.5143   27.5988  -72.8566 H         1 UNK         0.0781 
    110 H110      -75.8811   26.5753  -70.2108 H         1 UNK         0.0836 
    111 H111      -77.4078   26.2995  -69.4038 H         1 UNK         0.0836 
    112 H112      -77.4238   24.4721  -74.3898 H         1 UNK         0.3022 
    113 H113      -75.9362   22.0365  -76.4935 H         1 UNK         0.0747 
    114 H114      -75.7181   21.0883  -74.1846 H         1 UNK         0.0793 
    115 H115      -77.2824   21.7654  -73.7485 H         1 UNK         0.0793 
    116 H116      -77.1729   20.5081  -74.9794 H         1 UNK         0.0793 
    117 H117      -78.6511   22.4627  -75.7432 H         1 UNK         0.3047 
    118 H118      -79.4630   24.9156  -78.2003 H         1 UNK         0.0822 
    119 H119      -81.0543   23.1515  -78.8755 H         1 UNK         0.0807 
    120 H120      -80.1489   21.9407  -77.9691 H         1 UNK         0.0807 
    121 H121      -79.4239   22.7220  -79.3656 H         1 UNK         0.0807 
    122 H122      -80.8550   25.2252  -76.5324 H         1 UNK         0.2946 
    123 H123      -82.8449   24.1242  -75.2403 H         1 UNK         0.1144 
    124 H124      -81.4851   23.0074  -72.7367 H         1 UNK         0.0793 
    125 H125      -82.5626   22.1191  -73.8057 H         1 UNK         0.0793 
    126 H126      -83.1829   23.4680  -72.8743 H         1 UNK         0.0793 
    127 H127      -81.6990   25.4580  -73.0225 H         1 UNK         0.2896 
@<TRIPOS>BOND
     1    1    2 1    
     2    1   67 1    
     3    1   68 1    
     4    1   69 1    
     5    2    3 2    
     6    2    4 am   BACKBONE|DICT|INTERRES
     7    4    5 1    
     8    4   70 1    
     9    5    6 1    
    10    5   65 1    
    11    5   71 1    
    12    6    7 1    
    13    6   72 1    
    14    6   73 1    
    15    7    8 1    
    16    8    9 1    
    17    8   74 1    
    18    8   75 1    
    19    9   10 ar   
    20    9   14 ar   
    21   10   11 ar   
    22   10   76 1    
    23   11   12 ar   
    24   11   48 1    
    25   12   13 ar   
    26   12   77 1    
    27   13   14 ar   
    28   13   15 1    
    29   14   78 1    
    30   15   16 1    
    31   15   79 1    
    32   15   80 1    
    33   16   17 1    
    34   17   18 1    
    35   17   81 1    
    36   17   82 1    
    37   18   19 1    
    38   18   22 1    
    39   18   83 1    
    40   19   20 am   BACKBONE|DICT|INTERRES
    41   19   21 2    
    42   20   84 1    
    43   20   85 1    
    44   22   23 am   BACKBONE|DICT|INTERRES
    45   22   86 1    
    46   23   24 2    
    47   23   25 1    
    48   25   26 1    
    49   25   27 1    
    50   25   87 1    
    51   26   88 1    
    52   26   89 1    
    53   26   90 1    
    54   27   28 am   BACKBONE|DICT|INTERRES
    55   27   91 1    
    56   28   29 2    
    57   28   30 1    
    58   30   31 1    
    59   30   32 1    
    60   30   92 1    
    61   31   93 1    
    62   31   94 1    
    63   31   95 1    
    64   32   33 am   BACKBONE|DICT|INTERRES
    65   32   96 1    
    66   33   34 2    
    67   33   35 1    
    68   35   36 1    
    69   35   37 1    
    70   35   97 1    
    71   36   98 1    
    72   36   99 1    
    73   36  100 1    
    74   37   38 am   BACKBONE|DICT|INTERRES
    75   37  101 1    
    76   38   39 2    
    77   38   40 1    
    78   40   41 1    
    79   40   42 1    
    80   40  102 1    
    81   41  103 1    
    82   41  104 1    
    83   41  105 1    
    84   42   43 am   BACKBONE|DICT|INTERRES
    85   42  106 1    
    86   43   44 2    
    87   43   45 1    
    88   45   46 1    
    89   45   49 1    
    90   45  107 1    
    91   46   47 1    
    92   46  108 1    
    93   46  109 1    
    94   47   48 1    
    95   48  110 1    
    96   48  111 1    
    97   49   50 am   BACKBONE|DICT|INTERRES
    98   49  112 1    
    99   50   51 2    
   100   50   52 1    
   101   52   53 1    
   102   52   54 1    
   103   52  113 1    
   104   53  114 1    
   105   53  115 1    
   106   53  116 1    
   107   54   55 am   BACKBONE|DICT|INTERRES
   108   54  117 1    
   109   55   56 2    
   110   55   57 1    
   111   57   58 1    
   112   57   59 1    
   113   57  118 1    
   114   58  119 1    
   115   58  120 1    
   116   58  121 1    
   117   59   60 am   BACKBONE|DICT|INTERRES
   118   59  122 1    
   119   60   61 2    
   120   60   62 1    
   121   62   63 1    
   122   62   64 1    
   123   62  123 1    
   124   63  124 1    
   125   63  125 1    
   126   63  126 1    
   127   64   65 am   BACKBONE|DICT|INTERRES
   128   64  127 1    
   129   65   66 2    
@<TRIPOS>SUBSTRUCTURE
     1 UNK         1 GROUP             0       ****    0 ROOT    
