@<TRIPOS>MOLECULE
3R135
127   129    1
SMALL
USER_CHARGES


@<TRIPOS>ATOM
      1 CA        -77.0863   29.6938  -77.4563 C.3       0 UNK        -0.1998 
      2 C         -77.3618   28.6308  -76.4039 C.2       0 UNK         0.4909 
      3 O         -76.4918   27.8062  -76.1221 O.2       0 UNK        -0.5240 
      4 N         -78.5708   28.6509  -75.8279 N.am      1 UNK        -0.4739 
      5 CA        -79.0612   27.6487  -74.8784 C.3       1 UNK         0.0864 
      6 C6        -80.2868   28.1840  -74.0906 C.3       11 UNK        -0.0881 
      7 S7        -80.7605   27.1426  -72.6672 S.3       11 UNK        -0.2682 
      8 C8        -79.9486   28.0217  -71.2934 C.3       11 UNK         0.0289 
      9 C9        -78.4363   27.9528  -71.4260 C.ar      11 UNK        -0.0687 
     10 C10       -77.7664   26.7692  -71.1114 C.ar      11 UNK        -0.0823 
     11 C11       -76.3866   26.6584  -71.2989 C.ar      11 UNK        -0.0830 
     12 C12       -75.6716   27.7652  -71.7736 C.ar      11 UNK        -0.1021 
     13 C13       -76.3325   28.9528  -72.1014 C.ar      11 UNK        -0.0753 
     14 C14       -77.7138   29.0456  -71.9129 C.ar      11 UNK        -0.0933 
     15 C15       -75.5726   30.1189  -72.7141 C.3       11 UNK         0.0166 
     16 S16       -75.1566   31.3866  -71.4804 S.3       11 UNK        -0.2615 
     17 C17       -73.6231   30.7073  -70.7604 C.3       11 UNK        -0.0865 
     18 CA        -72.3552   31.4546  -71.2586 C.3       10 UNK         0.0862 
     19 C         -71.0945   31.0672  -70.4307 C.2       10 UNK         0.5551 
     20 N         -69.9531   30.7826  -71.0474 N.am      10 UNK        -0.7319 
     21 O         -71.1440   31.0404  -69.2034 O.2       10 UNK        -0.5018 
     22 N         -72.1584   31.2962  -72.7129 N.am      10 UNK        -0.4509 
     23 C         -72.1089   32.2949  -73.6046 C.2       10 UNK         0.4899 
     24 O         -72.2829   33.4798  -73.3171 O.2       10 UNK        -0.4839 
     25 CA        -71.7809   31.9333  -75.0673 C.3       9 UNK         0.0222 
     26 CB        -70.4115   32.5111  -75.4661 C.3       9 UNK        -0.1966 
     27 N         -71.7776   30.4904  -75.3342 N.am      9 UNK        -0.4218 
     28 C         -72.8581   29.7737  -75.6678 C.2       9 UNK         0.5020 
     29 O         -73.9903   30.2458  -75.7826 O.2       9 UNK        -0.5274 
     30 CA        -72.6281   28.2711  -75.8707 C.3       8 UNK         0.0270 
     31 CB        -72.6501   27.5452  -74.5172 C.3       8 UNK        -0.1976 
     32 N         -73.6653   27.7168  -76.7460 N.am      8 UNK        -0.4313 
     33 C         -73.4267   27.1156  -77.9170 C.2       8 UNK         0.5041 
     34 O         -72.2999   26.8106  -78.3141 O.2       8 UNK        -0.5577 
     35 CA        -74.6462   26.7906  -78.7897 C.3       7 UNK         0.0284 
     36 CB        -74.2891   26.6922  -80.2883 C.3       7 UNK        -0.1958 
     37 N         -75.2536   25.5454  -78.3311 N.am      7 UNK        -0.4454 
     38 C         -76.5101   25.1616  -78.5825 C.2       7 UNK         0.5089 
     39 O         -77.3113   25.8222  -79.2443 O.2       7 UNK        -0.5125 
     40 CA        -76.9648   23.8185  -77.9870 C.3       6 UNK         0.0408 
     41 CB        -76.3454   22.6171  -78.7297 C.3       6 UNK        -0.1791 
     42 N         -76.7788   23.7512  -76.5337 N.am      6 UNK        -0.4762 
     43 C         -75.6359   23.6159  -75.8487 C.2       6 UNK         0.5007 
     44 O         -74.5333   23.4911  -76.3841 O.2       6 UNK        -0.5032 
     45 CA        -75.7124   23.6691  -74.3091 C.3       5 UNK         0.0783 
     46 C46       -75.1474   25.0139  -73.7962 C.3       11 UNK        -0.0857 
     47 S47       -74.3668   24.8710  -72.1526 S.3       11 UNK        -0.2512 
     48 C48       -75.7034   25.3273  -70.9955 C.3       11 UNK         0.0225 
     49 N         -77.0637   23.4319  -73.7872 N.am      5 UNK        -0.4615 
     50 C         -77.6621   22.2368  -73.7328 C.2       4 UNK         0.5053 
     51 O         -77.1549   21.1980  -74.1557 O.2       4 UNK        -0.5105 
     52 CA        -79.0457   22.1879  -73.0751 C.3       4 UNK         0.0263 
     53 CB        -79.0355   22.7865  -71.6554 C.3       4 UNK        -0.1981 
     54 N         -80.0681   22.8524  -73.8888 N.am      4 UNK        -0.4224 
     55 C         -81.3359   22.4186  -73.9763 C.2       3 UNK         0.4895 
     56 O         -81.7319   21.3773  -73.4493 O.2       3 UNK        -0.5091 
     57 CA        -82.3679   23.2761  -74.7350 C.3       3 UNK         0.0250 
     58 CB        -83.3266   23.9541  -73.7411 C.3       3 UNK        -0.1996 
     59 N         -81.7902   24.3058  -75.5958 N.am      3 UNK        -0.4254 
     60 C         -81.2221   24.0885  -76.7887 C.2       2 UNK         0.5004 
     61 O         -81.1286   22.9788  -77.3127 O.2       2 UNK        -0.5226 
     62 CA        -80.6543   25.3209  -77.5201 C.3       2 UNK         0.0269 
     63 CB        -81.6909   25.8675  -78.5148 C.3       2 UNK        -0.1926 
     64 N         -80.2052   26.4180  -76.6526 N.am      2 UNK        -0.4687 
     65 C         -79.3756   26.3265  -75.6008 C.2       1 UNK         0.5165 
     66 O         -78.8875   25.2695  -75.1955 O.2       1 UNK        -0.5079 
     67 H67       -76.0772   30.0878  -77.3469 H         1 UNK         0.0900 
     68 H68       -77.7812   30.5295  -77.3782 H         1 UNK         0.0900 
     69 H69       -77.1791   29.2646  -78.4535 H         1 UNK         0.0900 
     70 H70       -79.2300   29.3675  -76.0966 H         1 UNK         0.2959 
     71 H71       -78.2540   27.4401  -74.1734 H         1 UNK         0.1079 
     72 H72       -81.1570   28.2885  -74.7412 H         1 UNK         0.0837 
     73 H73       -80.0810   29.1914  -73.7263 H         1 UNK         0.0837 
     74 H74       -80.2929   29.0566  -71.2619 H         1 UNK         0.0685 
     75 H75       -80.2543   27.5671  -70.3499 H         1 UNK         0.0685 
     76 H76       -78.3323   25.9256  -70.7421 H         1 UNK         0.1434 
     77 H77       -74.6039   27.6900  -71.9190 H         1 UNK         0.1329 
     78 H78       -78.2282   29.9598  -72.1752 H         1 UNK         0.1335 
     79 H79       -76.1779   30.5751  -73.4989 H         1 UNK         0.0680 
     80 H80       -74.6639   29.7698  -73.2039 H         1 UNK         0.0680 
     81 H81       -73.5455   29.6389  -70.9631 H         1 UNK         0.1032 
     82 H82       -73.7205   30.7966  -69.6767 H         1 UNK         0.1032 
     83 H83       -72.5034   32.5116  -71.0311 H         1 UNK         0.0461 
     84 H84       -69.1443   30.5403  -70.4967 H         1 UNK         0.3453 
     85 H85       -69.8808   30.8399  -72.0497 H         1 UNK         0.3453 
     86 H86       -71.9939   30.3554  -73.0350 H         1 UNK         0.2984 
     87 H87       -72.5390   32.4090  -75.6933 H         1 UNK         0.0554 
     88 H88       -70.1900   32.3193  -76.5162 H         1 UNK         0.0847 
     89 H89       -69.6024   32.0889  -74.8688 H         1 UNK         0.0847 
     90 H90       -70.3867   33.5930  -75.3270 H         1 UNK         0.0847 
     91 H91       -70.8847   30.0215  -75.2683 H         1 UNK         0.3141 
     92 H92       -71.6394   28.1435  -76.3167 H         1 UNK         0.0743 
     93 H93       -71.9352   27.9784  -73.8169 H         1 UNK         0.0784 
     94 H94       -73.6355   27.5975  -74.0550 H         1 UNK         0.0784 
     95 H95       -72.3801   26.4960  -74.6337 H         1 UNK         0.0784 
     96 H96       -74.6288   27.9253  -76.4830 H         1 UNK         0.3213 
     97 H97       -75.3645   27.6024  -78.6665 H         1 UNK         0.0855 
     98 H98       -73.7772   27.5938  -80.6269 H         1 UNK         0.0814 
     99 H99       -75.1801   26.5779  -80.9056 H         1 UNK         0.0814 
    100 H100      -73.6314   25.8462  -80.4911 H         1 UNK         0.0814 
    101 H101      -74.6823   24.9481  -77.7391 H         1 UNK         0.3105 
    102 H102      -78.0388   23.7398  -78.1387 H         1 UNK         0.0547 
    103 H103      -76.6400   22.6227  -79.7797 H         1 UNK         0.0837 
    104 H104      -75.2558   22.6270  -78.7061 H         1 UNK         0.0837 
    105 H105      -76.6820   21.6720  -78.3040 H         1 UNK         0.0837 
    106 H106      -77.6055   23.9730  -75.9870 H         1 UNK         0.3020 
    107 H107      -75.0661   22.8606  -73.9587 H         1 UNK         0.1245 
    108 H108      -75.9084   25.7956  -73.8147 H         1 UNK         0.0781 
    109 H109      -74.3595   25.3726  -74.4575 H         1 UNK         0.0781 
    110 H110      -75.2907   25.3709  -69.9870 H         1 UNK         0.0836 
    111 H111      -76.4333   24.5167  -70.9927 H         1 UNK         0.0836 
    112 H112      -77.5707   24.2487  -73.4777 H         1 UNK         0.3022 
    113 H113      -79.2865   21.1265  -72.9808 H         1 UNK         0.0747 
    114 H114      -79.9590   22.5519  -71.1258 H         1 UNK         0.0793 
    115 H115      -78.2124   22.3856  -71.0621 H         1 UNK         0.0793 
    116 H116      -78.9350   23.8710  -71.6748 H         1 UNK         0.0793 
    117 H117      -79.7911   23.6986  -74.3783 H         1 UNK         0.3047 
    118 H118      -82.9515   22.5971  -75.3606 H         1 UNK         0.0822 
    119 H119      -84.1124   24.5049  -74.2584 H         1 UNK         0.0807 
    120 H120      -82.8016   24.6512  -73.0864 H         1 UNK         0.0807 
    121 H121      -83.8173   23.2168  -73.1041 H         1 UNK         0.0807 
    122 H122      -81.8089   25.2523  -75.2448 H         1 UNK         0.2946 
    123 H123      -79.7919   24.9924  -78.0958 H         1 UNK         0.1144 
    124 H124      -82.0318   25.0849  -79.1945 H         1 UNK         0.0793 
    125 H125      -81.2705   26.6637  -79.1296 H         1 UNK         0.0793 
    126 H126      -82.5707   26.2628  -78.0055 H         1 UNK         0.0793 
    127 H127      -80.5352   27.3376  -76.9059 H         1 UNK         0.2896 
@<TRIPOS>BOND
     1    1    2 1    
     2    1   67 1    
     3    1   68 1    
     4    1   69 1    
     5    2    3 2    
     6    2    4 am   BACKBONE|DICT|INTERRES
     7    4    5 1    
     8    4   70 1    
     9    5    6 1    
    10    5   65 1    
    11    5   71 1    
    12    6    7 1    
    13    6   72 1    
    14    6   73 1    
    15    7    8 1    
    16    8    9 1    
    17    8   74 1    
    18    8   75 1    
    19    9   10 ar   
    20    9   14 ar   
    21   10   11 ar   
    22   10   76 1    
    23   11   12 ar   
    24   11   48 1    
    25   12   13 ar   
    26   12   77 1    
    27   13   14 ar   
    28   13   15 1    
    29   14   78 1    
    30   15   16 1    
    31   15   79 1    
    32   15   80 1    
    33   16   17 1    
    34   17   18 1    
    35   17   81 1    
    36   17   82 1    
    37   18   19 1    
    38   18   22 1    
    39   18   83 1    
    40   19   20 am   BACKBONE|DICT|INTERRES
    41   19   21 2    
    42   20   84 1    
    43   20   85 1    
    44   22   23 am   BACKBONE|DICT|INTERRES
    45   22   86 1    
    46   23   24 2    
    47   23   25 1    
    48   25   26 1    
    49   25   27 1    
    50   25   87 1    
    51   26   88 1    
    52   26   89 1    
    53   26   90 1    
    54   27   28 am   BACKBONE|DICT|INTERRES
    55   27   91 1    
    56   28   29 2    
    57   28   30 1    
    58   30   31 1    
    59   30   32 1    
    60   30   92 1    
    61   31   93 1    
    62   31   94 1    
    63   31   95 1    
    64   32   33 am   BACKBONE|DICT|INTERRES
    65   32   96 1    
    66   33   34 2    
    67   33   35 1    
    68   35   36 1    
    69   35   37 1    
    70   35   97 1    
    71   36   98 1    
    72   36   99 1    
    73   36  100 1    
    74   37   38 am   BACKBONE|DICT|INTERRES
    75   37  101 1    
    76   38   39 2    
    77   38   40 1    
    78   40   41 1    
    79   40   42 1    
    80   40  102 1    
    81   41  103 1    
    82   41  104 1    
    83   41  105 1    
    84   42   43 am   BACKBONE|DICT|INTERRES
    85   42  106 1    
    86   43   44 2    
    87   43   45 1    
    88   45   46 1    
    89   45   49 1    
    90   45  107 1    
    91   46   47 1    
    92   46  108 1    
    93   46  109 1    
    94   47   48 1    
    95   48  110 1    
    96   48  111 1    
    97   49   50 am   BACKBONE|DICT|INTERRES
    98   49  112 1    
    99   50   51 2    
   100   50   52 1    
   101   52   53 1    
   102   52   54 1    
   103   52  113 1    
   104   53  114 1    
   105   53  115 1    
   106   53  116 1    
   107   54   55 am   BACKBONE|DICT|INTERRES
   108   54  117 1    
   109   55   56 2    
   110   55   57 1    
   111   57   58 1    
   112   57   59 1    
   113   57  118 1    
   114   58  119 1    
   115   58  120 1    
   116   58  121 1    
   117   59   60 am   BACKBONE|DICT|INTERRES
   118   59  122 1    
   119   60   61 2    
   120   60   62 1    
   121   62   63 1    
   122   62   64 1    
   123   62  123 1    
   124   63  124 1    
   125   63  125 1    
   126   63  126 1    
   127   64   65 am   BACKBONE|DICT|INTERRES
   128   64  127 1    
   129   65   66 2    
@<TRIPOS>SUBSTRUCTURE
     1 UNK         1 GROUP             0       ****    0 ROOT    
