@<TRIPOS>MOLECULE
3R135
127   129    1
SMALL
USER_CHARGES


@<TRIPOS>ATOM
      1 CA        -82.2126   25.6946  -72.0373 C.3       0 UNK        -0.1998 
      2 C         -82.3715   27.0770  -72.6520 C.2       0 UNK         0.4909 
      3 O         -83.4786   27.6136  -72.6888 O.2       0 UNK        -0.5240 
      4 N         -81.2783   27.6456  -73.1715 N.am      1 UNK        -0.4739 
      5 CA        -81.2300   28.9336  -73.8740 C.3       1 UNK         0.0864 
      6 C6        -79.8706   29.6463  -73.6347 C.3       11 UNK        -0.0881 
      7 S7        -79.8091   30.6026  -72.0805 S.3       11 UNK        -0.2682 
      8 C8        -79.7989   29.3348  -70.7657 C.3       11 UNK         0.0289 
      9 C9        -78.7172   28.2685  -70.9118 C.ar      11 UNK        -0.0687 
     10 C10       -79.0254   26.9349  -70.6290 C.ar      11 UNK        -0.0823 
     11 C11       -78.0497   25.9378  -70.7153 C.ar      11 UNK        -0.0830 
     12 C12       -76.7529   26.2869  -71.1102 C.ar      11 UNK        -0.1021 
     13 C13       -76.4314   27.6140  -71.4102 C.ar      11 UNK        -0.0753 
     14 C14       -77.4111   28.6025  -71.2822 C.ar      11 UNK        -0.0933 
     15 C15       -75.0204   27.9812  -71.8495 C.3       11 UNK         0.0166 
     16 S16       -74.7809   27.7352  -73.6399 S.3       11 UNK        -0.2615 
     17 C17       -75.7028   29.1552  -74.3357 C.3       11 UNK        -0.0865 
     18 CA        -74.8146   30.2223  -75.0225 C.3       10 UNK         0.0862 
     19 C         -73.8952   30.9831  -74.0205 C.2       10 UNK         0.5551 
     20 N         -72.5819   31.0288  -74.2125 N.am      10 UNK        -0.7319 
     21 O         -74.3900   31.5588  -73.0547 O.2       10 UNK        -0.5018 
     22 N         -74.1308   29.6792  -76.2057 N.am      10 UNK        -0.4509 
     23 C         -73.7842   30.4064  -77.2751 C.2       10 UNK         0.4899 
     24 O         -74.0800   31.5949  -77.4131 O.2       10 UNK        -0.4839 
     25 CA        -72.9767   29.6879  -78.3769 C.3       9 UNK         0.0222 
     26 CB        -72.2242   30.6777  -79.2913 C.3       9 UNK        -0.1966 
     27 N         -72.0477   28.6589  -77.8892 N.am      9 UNK        -0.4218 
     28 C         -71.0788   28.7852  -76.9720 C.2       9 UNK         0.5020 
     29 O         -70.9098   29.8009  -76.2944 O.2       9 UNK        -0.5274 
     30 CA        -70.1420   27.5710  -76.7875 C.3       8 UNK         0.0270 
     31 CB        -69.1115   27.7892  -75.6631 C.3       8 UNK        -0.1976 
     32 N         -70.8417   26.3079  -76.5338 N.am      8 UNK        -0.4313 
     33 C         -71.5759   25.5962  -77.3966 C.2       8 UNK         0.5041 
     34 O         -71.7969   25.9600  -78.5529 O.2       8 UNK        -0.5577 
     35 CA        -72.1868   24.2708  -76.9034 C.3       7 UNK         0.0284 
     36 CB        -71.2928   23.0767  -77.2897 C.3       7 UNK        -0.1958 
     37 N         -72.5477   24.2305  -75.4768 N.am      7 UNK        -0.4454 
     38 C         -71.7506   24.2706  -74.3969 C.2       7 UNK         0.5089 
     39 O         -70.5270   24.3882  -74.4650 O.2       7 UNK        -0.5125 
     40 CA        -72.4098   24.2272  -73.0048 C.3       6 UNK         0.0408 
     41 CB        -72.0326   25.4759  -72.1896 C.3       6 UNK        -0.1791 
     42 N         -73.8695   24.1159  -73.0606 N.am      6 UNK        -0.4762 
     43 C         -74.5462   22.9622  -73.1622 C.2       6 UNK         0.5007 
     44 O         -74.0108   21.8536  -73.1825 O.2       6 UNK        -0.5032 
     45 CA        -76.0827   23.0671  -73.2679 C.3       5 UNK         0.0783 
     46 C46       -76.7185   22.8527  -71.8680 C.3       11 UNK        -0.0857 
     47 S47       -78.4693   23.3601  -71.7341 S.3       11 UNK        -0.2512 
     48 C48       -78.3983   24.5065  -70.3177 C.3       11 UNK         0.0225 
     49 N         -76.5471   24.2880  -73.9453 N.am      5 UNK        -0.4615 
     50 C         -76.2473   24.6245  -75.2060 C.2       4 UNK         0.5053 
     51 O         -75.4407   24.0094  -75.9043 O.2       4 UNK        -0.5105 
     52 CA        -77.0202   25.8055  -75.8034 C.3       4 UNK         0.0263 
     53 CB        -76.2501   26.4861  -76.9518 C.3       4 UNK        -0.1981 
     54 N         -78.2993   25.3114  -76.3056 N.am      4 UNK        -0.4224 
     55 C         -79.4141   25.2360  -75.5722 C.2       3 UNK         0.4895 
     56 O         -79.5088   25.6590  -74.4171 O.2       3 UNK        -0.5091 
     57 CA        -80.6331   24.5840  -76.2344 C.3       3 UNK         0.0250 
     58 CB        -81.0673   23.3301  -75.4567 C.3       3 UNK        -0.1996 
     59 N         -81.7068   25.5676  -76.2072 N.am      3 UNK        -0.4254 
     60 C         -82.1609   26.2547  -77.2634 C.2       2 UNK         0.5004 
     61 O         -81.8934   25.9823  -78.4340 O.2       2 UNK        -0.5226 
     62 CA        -83.0285   27.4898  -76.9488 C.3       2 UNK         0.0269 
     63 CB        -84.5212   27.1239  -76.9655 C.3       2 UNK        -0.1926 
     64 N         -82.6891   28.0910  -75.6530 N.am      2 UNK        -0.4687 
     65 C         -81.5107   28.6670  -75.3678 C.2       1 UNK         0.5165 
     66 O         -80.6539   28.9059  -76.2208 O.2       1 UNK        -0.5079 
     67 H67       -82.9125   24.9967  -72.4957 H         1 UNK         0.0900 
     68 H68       -82.4196   25.7324  -70.9683 H         1 UNK         0.0900 
     69 H69       -81.2055   25.3004  -72.1772 H         1 UNK         0.0900 
     70 H70       -80.4193   27.1049  -73.2118 H         1 UNK         0.2959 
     71 H71       -82.0301   29.5864  -73.5173 H         1 UNK         0.1079 
     72 H72       -79.0402   28.9392  -73.6781 H         1 UNK         0.0837 
     73 H73       -79.6713   30.3784  -74.4196 H         1 UNK         0.0837 
     74 H74       -80.7882   28.8785  -70.7217 H         1 UNK         0.0685 
     75 H75       -79.6568   29.8365  -69.8079 H         1 UNK         0.0685 
     76 H76       -80.0259   26.6768  -70.3116 H         1 UNK         0.1434 
     77 H77       -75.9815   25.5355  -71.1736 H         1 UNK         0.1329 
     78 H78       -77.1606   29.6360  -71.4751 H         1 UNK         0.1335 
     79 H79       -74.7908   29.0153  -71.5877 H         1 UNK         0.0680 
     80 H80       -74.2997   27.3666  -71.3090 H         1 UNK         0.0680 
     81 H81       -76.4252   28.7737  -75.0570 H         1 UNK         0.1032 
     82 H82       -76.3072   29.6296  -73.5646 H         1 UNK         0.1032 
     83 H83       -75.5085   30.9846  -75.3826 H         1 UNK         0.0461 
     84 H84       -72.0085   31.5319  -73.5551 H         1 UNK         0.3453 
     85 H85       -72.1473   30.5708  -75.0080 H         1 UNK         0.3453 
     86 H86       -73.8187   28.7223  -76.1391 H         1 UNK         0.2984 
     87 H87       -73.7103   29.1637  -78.9909 H         1 UNK         0.0554 
     88 H88       -71.6896   30.1573  -80.0858 H         1 UNK         0.0847 
     89 H89       -71.4992   31.2694  -78.7310 H         1 UNK         0.0847 
     90 H90       -72.9126   31.3742  -79.7717 H         1 UNK         0.0847 
     91 H91       -72.1051   27.7494  -78.3480 H         1 UNK         0.3141 
     92 H92       -69.5900   27.4616  -77.7232 H         1 UNK         0.0743 
     93 H93       -68.5174   28.6865  -75.8423 H         1 UNK         0.0784 
     94 H94       -69.5952   27.9050  -74.6922 H         1 UNK         0.0784 
     95 H95       -68.4159   26.9527  -75.5934 H         1 UNK         0.0784 
     96 H96       -70.6824   25.8771  -75.6272 H         1 UNK         0.3213 
     97 H97       -73.1300   24.1566  -77.4406 H         1 UNK         0.0855 
     98 H98       -70.3146   23.1250  -76.8105 H         1 UNK         0.0814 
     99 H99       -71.1229   23.0519  -78.3670 H         1 UNK         0.0814 
    100 H100      -71.7561   22.1295  -77.0135 H         1 UNK         0.0814 
    101 H101      -73.5478   24.1527  -75.3151 H         1 UNK         0.3105 
    102 H102      -72.0061   23.3563  -72.4844 H         1 UNK         0.0547 
    103 H103      -72.3178   26.3958  -72.6998 H         1 UNK         0.0837 
    104 H104      -72.5065   25.4707  -71.2081 H         1 UNK         0.0837 
    105 H105      -70.9554   25.5223  -72.0244 H         1 UNK         0.0837 
    106 H106      -74.3914   24.9816  -73.0814 H         1 UNK         0.3020 
    107 H107      -76.4035   22.2370  -73.9016 H         1 UNK         0.1245 
    108 H108      -76.1402   23.3556  -71.0926 H         1 UNK         0.0781 
    109 H109      -76.6661   21.7938  -71.6080 H         1 UNK         0.0781 
    110 H110      -79.3712   24.4826  -69.8244 H         1 UNK         0.0836 
    111 H111      -77.6879   24.1463  -69.5725 H         1 UNK         0.0836 
    112 H112      -77.2669   24.8111  -73.4614 H         1 UNK         0.3022 
    113 H113      -77.1863   26.5432  -75.0162 H         1 UNK         0.0747 
    114 H114      -75.2656   26.8162  -76.6189 H         1 UNK         0.0793 
    115 H115      -76.7816   27.3654  -77.3160 H         1 UNK         0.0793 
    116 H116      -76.0970   25.8138  -77.7969 H         1 UNK         0.0793 
    117 H117      -78.2947   24.9210  -77.2372 H         1 UNK         0.3047 
    118 H118      -80.3912   24.2969  -77.2600 H         1 UNK         0.0822 
    119 H119      -80.2747   22.5807  -75.4536 H         1 UNK         0.0807 
    120 H120      -81.9477   22.8712  -75.9066 H         1 UNK         0.0807 
    121 H121      -81.3033   23.5568  -74.4158 H         1 UNK         0.0807 
    122 H122      -81.9470   25.9138  -75.2901 H         1 UNK         0.2946 
    123 H123      -82.8414   28.2305  -77.7298 H         1 UNK         0.1144 
    124 H124      -84.7682   26.3949  -76.1926 H         1 UNK         0.0793 
    125 H125      -84.8052   26.6906  -77.9257 H         1 UNK         0.0793 
    126 H126      -85.1468   28.0032  -76.8108 H         1 UNK         0.0793 
    127 H127      -83.3323   27.9310  -74.8862 H         1 UNK         0.2896 
@<TRIPOS>BOND
     1    1    2 1    
     2    1   67 1    
     3    1   68 1    
     4    1   69 1    
     5    2    3 2    
     6    2    4 am   BACKBONE|DICT|INTERRES
     7    4    5 1    
     8    4   70 1    
     9    5    6 1    
    10    5   65 1    
    11    5   71 1    
    12    6    7 1    
    13    6   72 1    
    14    6   73 1    
    15    7    8 1    
    16    8    9 1    
    17    8   74 1    
    18    8   75 1    
    19    9   10 ar   
    20    9   14 ar   
    21   10   11 ar   
    22   10   76 1    
    23   11   12 ar   
    24   11   48 1    
    25   12   13 ar   
    26   12   77 1    
    27   13   14 ar   
    28   13   15 1    
    29   14   78 1    
    30   15   16 1    
    31   15   79 1    
    32   15   80 1    
    33   16   17 1    
    34   17   18 1    
    35   17   81 1    
    36   17   82 1    
    37   18   19 1    
    38   18   22 1    
    39   18   83 1    
    40   19   20 am   BACKBONE|DICT|INTERRES
    41   19   21 2    
    42   20   84 1    
    43   20   85 1    
    44   22   23 am   BACKBONE|DICT|INTERRES
    45   22   86 1    
    46   23   24 2    
    47   23   25 1    
    48   25   26 1    
    49   25   27 1    
    50   25   87 1    
    51   26   88 1    
    52   26   89 1    
    53   26   90 1    
    54   27   28 am   BACKBONE|DICT|INTERRES
    55   27   91 1    
    56   28   29 2    
    57   28   30 1    
    58   30   31 1    
    59   30   32 1    
    60   30   92 1    
    61   31   93 1    
    62   31   94 1    
    63   31   95 1    
    64   32   33 am   BACKBONE|DICT|INTERRES
    65   32   96 1    
    66   33   34 2    
    67   33   35 1    
    68   35   36 1    
    69   35   37 1    
    70   35   97 1    
    71   36   98 1    
    72   36   99 1    
    73   36  100 1    
    74   37   38 am   BACKBONE|DICT|INTERRES
    75   37  101 1    
    76   38   39 2    
    77   38   40 1    
    78   40   41 1    
    79   40   42 1    
    80   40  102 1    
    81   41  103 1    
    82   41  104 1    
    83   41  105 1    
    84   42   43 am   BACKBONE|DICT|INTERRES
    85   42  106 1    
    86   43   44 2    
    87   43   45 1    
    88   45   46 1    
    89   45   49 1    
    90   45  107 1    
    91   46   47 1    
    92   46  108 1    
    93   46  109 1    
    94   47   48 1    
    95   48  110 1    
    96   48  111 1    
    97   49   50 am   BACKBONE|DICT|INTERRES
    98   49  112 1    
    99   50   51 2    
   100   50   52 1    
   101   52   53 1    
   102   52   54 1    
   103   52  113 1    
   104   53  114 1    
   105   53  115 1    
   106   53  116 1    
   107   54   55 am   BACKBONE|DICT|INTERRES
   108   54  117 1    
   109   55   56 2    
   110   55   57 1    
   111   57   58 1    
   112   57   59 1    
   113   57  118 1    
   114   58  119 1    
   115   58  120 1    
   116   58  121 1    
   117   59   60 am   BACKBONE|DICT|INTERRES
   118   59  122 1    
   119   60   61 2    
   120   60   62 1    
   121   62   63 1    
   122   62   64 1    
   123   62  123 1    
   124   63  124 1    
   125   63  125 1    
   126   63  126 1    
   127   64   65 am   BACKBONE|DICT|INTERRES
   128   64  127 1    
   129   65   66 2    
@<TRIPOS>SUBSTRUCTURE
     1 UNK         1 GROUP             0       ****    0 ROOT    
