@<TRIPOS>MOLECULE
3R135
127   129    1
SMALL
USER_CHARGES


@<TRIPOS>ATOM
      1 CA        -81.0116   21.5819  -73.1544 C.3       0 UNK        -0.1998 
      2 C         -81.5784   22.9606  -73.4549 C.2       0 UNK         0.4909 
      3 O         -82.1161   23.1766  -74.5415 O.2       0 UNK        -0.5240 
      4 N         -81.4486   23.8990  -72.5075 N.am      1 UNK        -0.4739 
      5 CA        -81.8739   25.2993  -72.6203 C.3       1 UNK         0.0864 
      6 C6        -81.6807   26.0816  -71.2922 C.3       11 UNK        -0.0881 
      7 S7        -80.0453   25.8644  -70.4935 S.3       11 UNK        -0.2682 
      8 C8        -79.8387   27.4480  -69.6197 C.3       11 UNK         0.0289 
      9 C9        -78.8262   28.3603  -70.3008 C.ar      11 UNK        -0.0687 
     10 C10       -79.1815   29.0953  -71.4355 C.ar      11 UNK        -0.0823 
     11 C11       -78.2703   29.9833  -72.0162 C.ar      11 UNK        -0.0830 
     12 C12       -77.0022   30.1369  -71.4513 C.ar      11 UNK        -0.1021 
     13 C13       -76.6180   29.3904  -70.3299 C.ar      11 UNK        -0.0753 
     14 C14       -77.5413   28.5034  -69.7655 C.ar      11 UNK        -0.0933 
     15 C15       -75.2410   29.5202  -69.6705 C.3       11 UNK         0.0166 
     16 S16       -74.0425   30.6223  -70.5029 S.3       11 UNK        -0.2615 
     17 C17       -73.5312   29.5883  -71.9170 C.3       11 UNK        -0.0865 
     18 CA        -72.4409   30.2528  -72.8029 C.3       10 UNK         0.0862 
     19 C         -71.0297   30.1754  -72.1374 C.2       10 UNK         0.5551 
     20 N         -70.1091   29.3417  -72.6097 N.am      10 UNK        -0.7319 
     21 O         -70.7566   30.8982  -71.1827 O.2       10 UNK        -0.5018 
     22 N         -72.5037   29.7142  -74.1693 N.am      10 UNK        -0.4509 
     23 C         -71.8316   30.1771  -75.2325 C.2       10 UNK         0.4899 
     24 O         -71.2069   31.2388  -75.2393 O.2       10 UNK        -0.4839 
     25 CA        -71.8425   29.2755  -76.4874 C.3       9 UNK         0.0222 
     26 CB        -70.6013   29.4799  -77.3812 C.3       9 UNK        -0.1966 
     27 N         -72.0291   27.8520  -76.1613 N.am      9 UNK        -0.4218 
     28 C         -71.2379   27.0903  -75.3876 C.2       9 UNK         0.5020 
     29 O         -70.1684   27.4754  -74.9131 O.2       9 UNK        -0.5274 
     30 CA        -71.7535   25.6973  -74.9958 C.3       8 UNK         0.0270 
     31 CB        -72.3126   25.7327  -73.5628 C.3       8 UNK        -0.1976 
     32 N         -72.7808   25.1782  -75.9014 N.am      8 UNK        -0.4313 
     33 C         -72.5128   24.5986  -77.0790 C.2       8 UNK         0.5041 
     34 O         -71.3752   24.4609  -77.5316 O.2       8 UNK        -0.5577 
     35 CA        -73.7108   24.0743  -77.8862 C.3       7 UNK         0.0284 
     36 CB        -74.2261   22.7529  -77.2932 C.3       7 UNK        -0.1958 
     37 N         -74.8089   25.0391  -77.9846 N.am      7 UNK        -0.4454 
     38 C         -74.7396   26.1954  -78.6602 C.2       7 UNK         0.5089 
     39 O         -73.7386   26.5775  -79.2666 O.2       7 UNK        -0.5125 
     40 CA        -75.9957   27.0831  -78.6607 C.3       6 UNK         0.0408 
     41 CB        -77.0198   26.5726  -79.6864 C.3       6 UNK        -0.1791 
     42 N         -76.6315   27.1912  -77.3474 N.am      6 UNK        -0.4762 
     43 C         -76.0636   27.7441  -76.2644 C.2       6 UNK         0.5007 
     44 O         -74.9312   28.2258  -76.2491 O.2       6 UNK        -0.5032 
     45 CA        -76.8833   27.6934  -74.9611 C.3       5 UNK         0.0783 
     46 C46       -78.0828   28.6748  -75.0131 C.3       11 UNK        -0.0857 
     47 S47       -77.6063   30.4019  -74.6842 S.3       11 UNK        -0.2512 
     48 C48       -78.6524   30.7984  -73.2441 C.3       11 UNK         0.0225 
     49 N         -77.3203   26.3288  -74.6567 N.am      5 UNK        -0.4615 
     50 C         -76.5415   25.2413  -74.5683 C.2       4 UNK         0.5053 
     51 O         -75.3152   25.2561  -74.6617 O.2       4 UNK        -0.5105 
     52 CA        -77.2642   23.8946  -74.4205 C.3       4 UNK         0.0263 
     53 CB        -77.6666   23.6390  -72.9598 C.3       4 UNK        -0.1981 
     54 N         -78.4396   23.8159  -75.2911 N.am      4 UNK        -0.4224 
     55 C         -78.3840   23.7612  -76.6304 C.2       3 UNK         0.4895 
     56 O         -77.3353   23.7129  -77.2722 O.2       3 UNK        -0.5091 
     57 CA        -79.7225   23.8153  -77.3827 C.3       3 UNK         0.0250 
     58 CB        -80.3712   22.4237  -77.4475 C.3       3 UNK        -0.1996 
     59 N         -80.6517   24.7779  -76.7856 N.am      3 UNK        -0.4254 
     60 C         -80.4812   26.1078  -76.8480 C.2       2 UNK         0.5004 
     61 O         -79.5547   26.6473  -77.4533 O.2       2 UNK        -0.5226 
     62 CA        -81.4803   26.9883  -76.0730 C.3       2 UNK         0.0269 
     63 CB        -82.6731   27.3605  -76.9672 C.3       2 UNK        -0.1926 
     64 N         -81.9716   26.3845  -74.8287 N.am      2 UNK        -0.4687 
     65 C         -81.1889   25.9960  -73.8120 C.2       1 UNK         0.5165 
     66 O         -79.9657   26.1209  -73.8177 O.2       1 UNK        -0.5079 
     67 H67       -81.7999   20.8321  -73.2152 H         1 UNK         0.0900 
     68 H68       -80.5706   21.5306  -72.1590 H         1 UNK         0.0900 
     69 H69       -80.2410   21.3258  -73.8810 H         1 UNK         0.0900 
     70 H70       -80.9655   23.6770  -71.6482 H         1 UNK         0.2959 
     71 H71       -82.9464   25.2805  -72.8262 H         1 UNK         0.1079 
     72 H72       -81.8789   27.1437  -71.4482 H         1 UNK         0.0837 
     73 H73       -82.4324   25.7514  -70.5736 H         1 UNK         0.0837 
     74 H74       -79.5194   27.2325  -68.5989 H         1 UNK         0.0685 
     75 H75       -80.7960   27.9622  -69.5249 H         1 UNK         0.0685 
     76 H76       -80.1701   28.9808  -71.8578 H         1 UNK         0.1434 
     77 H77       -76.3228   30.8431  -71.9056 H         1 UNK         0.1329 
     78 H78       -77.2633   27.9342  -68.8888 H         1 UNK         0.1335 
     79 H79       -75.3861   29.8959  -68.6567 H         1 UNK         0.0680 
     80 H80       -74.7950   28.5296  -69.5686 H         1 UNK         0.0680 
     81 H81       -73.1999   28.6124  -71.5562 H         1 UNK         0.1032 
     82 H82       -74.4264   29.3954  -72.5100 H         1 UNK         0.1032 
     83 H83       -72.6806   31.3141  -72.8932 H         1 UNK         0.0461 
     84 H84       -70.2840   28.7570  -73.4203 H         1 UNK         0.3453 
     85 H85       -69.2042   29.3164  -72.1680 H         1 UNK         0.3453 
     86 H86       -73.0070   28.8480  -74.2862 H         1 UNK         0.2984 
     87 H87       -72.7169   29.5725  -77.0676 H         1 UNK         0.0554 
     88 H88       -70.6328   28.8308  -78.2564 H         1 UNK         0.0847 
     89 H89       -69.6751   29.2747  -76.8437 H         1 UNK         0.0847 
     90 H90       -70.5448   30.5071  -77.7431 H         1 UNK         0.0847 
     91 H91       -72.9239   27.4694  -76.4466 H         1 UNK         0.3141 
     92 H92       -70.8993   25.0168  -75.0069 H         1 UNK         0.0743 
     93 H93       -71.5526   26.0630  -72.8532 H         1 UNK         0.0784 
     94 H94       -73.1591   26.4147  -73.4746 H         1 UNK         0.0784 
     95 H95       -72.6461   24.7452  -73.2432 H         1 UNK         0.0784 
     96 H96       -73.7468   25.2265  -75.5751 H         1 UNK         0.3213 
     97 H97       -73.3588   23.8707  -78.8999 H         1 UNK         0.0855 
     98 H98       -74.6382   22.8920  -76.2933 H         1 UNK         0.0814 
     99 H99       -73.4231   22.0185  -77.2171 H         1 UNK         0.0814 
    100 H100      -75.0055   22.3162  -77.9177 H         1 UNK         0.0814 
    101 H101      -75.6918   24.7728  -77.5568 H         1 UNK         0.3105 
    102 H102      -75.6903   28.0878  -78.9601 H         1 UNK         0.0547 
    103 H103      -77.8736   27.2461  -79.7624 H         1 UNK         0.0837 
    104 H104      -76.5755   26.4983  -80.6798 H         1 UNK         0.0837 
    105 H105      -77.3985   25.5845  -79.4220 H         1 UNK         0.0837 
    106 H106      -77.5824   26.8389  -77.2737 H         1 UNK         0.3020 
    107 H107      -76.2236   27.9894  -74.1426 H         1 UNK         0.1245 
    108 H108      -78.8287   28.3853  -74.2739 H         1 UNK         0.0781 
    109 H109      -78.5986   28.6361  -75.9732 H         1 UNK         0.0781 
    110 H110      -79.7002   30.6458  -73.5080 H         1 UNK         0.0836 
    111 H111      -78.5467   31.8593  -73.0129 H         1 UNK         0.0836 
    112 H112      -78.3179   26.2114  -74.4855 H         1 UNK         0.3022 
    113 H113      -76.5686   23.1084  -74.7210 H         1 UNK         0.0747 
    114 H114      -78.1170   22.6543  -72.8382 H         1 UNK         0.0793 
    115 H115      -76.7950   23.6785  -72.3053 H         1 UNK         0.0793 
    116 H116      -78.3765   24.3818  -72.5965 H         1 UNK         0.0793 
    117 H117      -79.3410   23.9352  -74.8527 H         1 UNK         0.3047 
    118 H118      -79.5135   24.1365  -78.4057 H         1 UNK         0.0822 
    119 H119      -79.7086   21.7097  -77.9387 H         1 UNK         0.0807 
    120 H120      -81.3012   22.4458  -78.0157 H         1 UNK         0.0807 
    121 H121      -80.5940   22.0298  -76.4558 H         1 UNK         0.0807 
    122 H122      -81.4124   24.4034  -76.2293 H         1 UNK         0.2946 
    123 H123      -80.9571   27.9082  -75.8049 H         1 UNK         0.1144 
    124 H124      -82.3353   27.8320  -77.8913 H         1 UNK         0.0793 
    125 H125      -83.3375   28.0675  -76.4700 H         1 UNK         0.0793 
    126 H126      -83.2599   26.4838  -77.2442 H         1 UNK         0.0793 
    127 H127      -82.9661   26.2166  -74.7718 H         1 UNK         0.2896 
@<TRIPOS>BOND
     1    1    2 1    
     2    1   67 1    
     3    1   68 1    
     4    1   69 1    
     5    2    3 2    
     6    2    4 am   BACKBONE|DICT|INTERRES
     7    4    5 1    
     8    4   70 1    
     9    5    6 1    
    10    5   65 1    
    11    5   71 1    
    12    6    7 1    
    13    6   72 1    
    14    6   73 1    
    15    7    8 1    
    16    8    9 1    
    17    8   74 1    
    18    8   75 1    
    19    9   10 ar   
    20    9   14 ar   
    21   10   11 ar   
    22   10   76 1    
    23   11   12 ar   
    24   11   48 1    
    25   12   13 ar   
    26   12   77 1    
    27   13   14 ar   
    28   13   15 1    
    29   14   78 1    
    30   15   16 1    
    31   15   79 1    
    32   15   80 1    
    33   16   17 1    
    34   17   18 1    
    35   17   81 1    
    36   17   82 1    
    37   18   19 1    
    38   18   22 1    
    39   18   83 1    
    40   19   20 am   BACKBONE|DICT|INTERRES
    41   19   21 2    
    42   20   84 1    
    43   20   85 1    
    44   22   23 am   BACKBONE|DICT|INTERRES
    45   22   86 1    
    46   23   24 2    
    47   23   25 1    
    48   25   26 1    
    49   25   27 1    
    50   25   87 1    
    51   26   88 1    
    52   26   89 1    
    53   26   90 1    
    54   27   28 am   BACKBONE|DICT|INTERRES
    55   27   91 1    
    56   28   29 2    
    57   28   30 1    
    58   30   31 1    
    59   30   32 1    
    60   30   92 1    
    61   31   93 1    
    62   31   94 1    
    63   31   95 1    
    64   32   33 am   BACKBONE|DICT|INTERRES
    65   32   96 1    
    66   33   34 2    
    67   33   35 1    
    68   35   36 1    
    69   35   37 1    
    70   35   97 1    
    71   36   98 1    
    72   36   99 1    
    73   36  100 1    
    74   37   38 am   BACKBONE|DICT|INTERRES
    75   37  101 1    
    76   38   39 2    
    77   38   40 1    
    78   40   41 1    
    79   40   42 1    
    80   40  102 1    
    81   41  103 1    
    82   41  104 1    
    83   41  105 1    
    84   42   43 am   BACKBONE|DICT|INTERRES
    85   42  106 1    
    86   43   44 2    
    87   43   45 1    
    88   45   46 1    
    89   45   49 1    
    90   45  107 1    
    91   46   47 1    
    92   46  108 1    
    93   46  109 1    
    94   47   48 1    
    95   48  110 1    
    96   48  111 1    
    97   49   50 am   BACKBONE|DICT|INTERRES
    98   49  112 1    
    99   50   51 2    
   100   50   52 1    
   101   52   53 1    
   102   52   54 1    
   103   52  113 1    
   104   53  114 1    
   105   53  115 1    
   106   53  116 1    
   107   54   55 am   BACKBONE|DICT|INTERRES
   108   54  117 1    
   109   55   56 2    
   110   55   57 1    
   111   57   58 1    
   112   57   59 1    
   113   57  118 1    
   114   58  119 1    
   115   58  120 1    
   116   58  121 1    
   117   59   60 am   BACKBONE|DICT|INTERRES
   118   59  122 1    
   119   60   61 2    
   120   60   62 1    
   121   62   63 1    
   122   62   64 1    
   123   62  123 1    
   124   63  124 1    
   125   63  125 1    
   126   63  126 1    
   127   64   65 am   BACKBONE|DICT|INTERRES
   128   64  127 1    
   129   65   66 2    
@<TRIPOS>SUBSTRUCTURE
     1 UNK         1 GROUP             0       ****    0 ROOT    
