@<TRIPOS>MOLECULE
3R135
127   129    1
SMALL
USER_CHARGES


@<TRIPOS>ATOM
      1 CA        -84.8009   27.9324  -73.6685 C.3       0 UNK        -0.1998 
      2 C         -83.3426   28.3422  -73.8097 C.2       0 UNK         0.4909 
      3 O         -83.0516   29.3690  -74.4249 O.2       0 UNK        -0.5240 
      4 N         -82.4262   27.5534  -73.2354 N.am      1 UNK        -0.4739 
      5 CA        -80.9761   27.7594  -73.3174 C.3       1 UNK         0.0864 
      6 C6        -80.2179   26.9185  -72.2642 C.3       11 UNK        -0.0881 
      7 S7        -80.6530   27.3770  -70.5504 S.3       11 UNK        -0.2682 
      8 C8        -79.5014   28.7524  -70.1992 C.3       11 UNK         0.0289 
      9 C9        -78.0490   28.4179  -70.5184 C.ar      11 UNK        -0.0687 
     10 C10       -77.4660   27.2464  -70.0272 C.ar      11 UNK        -0.0823 
     11 C11       -76.1606   26.8979  -70.3822 C.ar      11 UNK        -0.0830 
     12 C12       -75.4171   27.7558  -71.1992 C.ar      11 UNK        -0.1021 
     13 C13       -75.9849   28.9362  -71.6877 C.ar      11 UNK        -0.0753 
     14 C14       -77.2998   29.2624  -71.3427 C.ar      11 UNK        -0.0933 
     15 C15       -75.1938   29.8559  -72.6037 C.3       11 UNK         0.0166 
     16 S16       -75.5363   29.4849  -74.3524 S.3       11 UNK        -0.2615 
     17 C17       -74.9811   31.0286  -75.1559 C.3       11 UNK        -0.0865 
     18 CA        -73.7749   30.8319  -76.1190 C.3       10 UNK         0.0862 
     19 C         -73.4704   32.1070  -76.9645 C.2       10 UNK         0.5551 
     20 N         -72.2214   32.3798  -77.3228 N.am      10 UNK        -0.7319 
     21 O         -74.3807   32.8465  -77.3310 O.2       10 UNK        -0.5018 
     22 N         -72.5920   30.2310  -75.4760 N.am      10 UNK        -0.4509 
     23 C         -71.8758   30.7441  -74.4641 C.2       10 UNK         0.4899 
     24 O         -72.1484   31.8056  -73.9018 O.2       10 UNK        -0.4839 
     25 CA        -70.6182   29.9572  -74.0325 C.3       9 UNK         0.0222 
     26 CB        -70.2221   30.2125  -72.5617 C.3       9 UNK        -0.1966 
     27 N         -70.7034   28.5218  -74.3354 N.am      9 UNK        -0.4218 
     28 C         -71.5341   27.6254  -73.7835 C.2       9 UNK         0.5020 
     29 O         -72.2637   27.8518  -72.8188 O.2       9 UNK        -0.5274 
     30 CA        -71.5926   26.2505  -74.4709 C.3       8 UNK         0.0270 
     31 CB        -71.5938   25.1060  -73.4431 C.3       8 UNK        -0.1976 
     32 N         -72.7812   26.1434  -75.3222 N.am      8 UNK        -0.4313 
     33 C         -73.0162   26.8918  -76.4126 C.2       8 UNK         0.5041 
     34 O         -72.2151   27.7263  -76.8413 O.2       8 UNK        -0.5577 
     35 CA        -74.3658   26.7031  -77.1371 C.3       7 UNK         0.0284 
     36 CB        -74.3284   27.1529  -78.6123 C.3       7 UNK        -0.1958 
     37 N         -74.9154   25.3503  -77.0180 N.am      7 UNK        -0.4454 
     38 C         -74.3520   24.1953  -77.4032 C.2       7 UNK         0.5089 
     39 O         -73.3017   24.1257  -78.0431 O.2       7 UNK        -0.5125 
     40 CA        -75.0747   22.8958  -76.9800 C.3       6 UNK         0.0408 
     41 CB        -74.0902   21.7262  -76.7731 C.3       6 UNK        -0.1791 
     42 N         -75.9459   23.0352  -75.8014 N.am      6 UNK        -0.4762 
     43 C         -75.6031   23.4845  -74.5796 C.2       6 UNK         0.5007 
     44 O         -74.4633   23.8666  -74.3161 O.2       6 UNK        -0.5032 
     45 CA        -76.7172   23.5562  -73.5043 C.3       5 UNK         0.0783 
     46 C46       -76.5282   24.7138  -72.4885 C.3       11 UNK        -0.0857 
     47 S47       -75.1866   24.4252  -71.2764 S.3       11 UNK        -0.2512 
     48 C48       -75.5794   25.5716  -69.9096 C.3       11 UNK         0.0225 
     49 N         -78.0216   23.6582  -74.1655 N.am      5 UNK        -0.4615 
     50 C         -79.0190   22.7688  -74.0758 C.2       4 UNK         0.5053 
     51 O         -79.0073   21.8093  -73.3051 O.2       4 UNK        -0.5105 
     52 CA        -80.2201   22.9443  -75.0305 C.3       4 UNK         0.0263 
     53 CB        -81.4640   23.4471  -74.2817 C.3       4 UNK        -0.1981 
     54 N         -79.9428   23.8222  -76.1746 N.am      4 UNK        -0.4224 
     55 C         -79.1097   23.5002  -77.1773 C.2       3 UNK         0.4895 
     56 O         -78.5487   22.4078  -77.2636 O.2       3 UNK        -0.5091 
     57 CA        -78.7839   24.5788  -78.2274 C.3       3 UNK         0.0250 
     58 CB        -79.6516   24.3844  -79.4805 C.3       3 UNK        -0.1996 
     59 N         -78.9205   25.9599  -77.7559 N.am      3 UNK        -0.4254 
     60 C         -78.2840   26.5020  -76.7082 C.2       2 UNK         0.5004 
     61 O         -77.5013   25.8791  -75.9884 O.2       2 UNK        -0.5226 
     62 CA        -78.6044   27.9686  -76.3673 C.3       2 UNK         0.0269 
     63 CB        -79.3742   28.7231  -77.4748 C.3       2 UNK        -0.1926 
     64 N         -79.3151   28.0848  -75.0879 N.am      2 UNK        -0.4687 
     65 C         -80.4439   27.4507  -74.7320 C.2       1 UNK         0.5165 
     66 O         -81.0317   26.6324  -75.4471 O.2       1 UNK        -0.5079 
     67 H67       -85.2398   27.7653  -74.6518 H         1 UNK         0.0900 
     68 H68       -84.9128   27.0172  -73.0874 H         1 UNK         0.0900 
     69 H69       -85.3661   28.7205  -73.1717 H         1 UNK         0.0900 
     70 H70       -82.7215   26.7221  -72.7448 H         1 UNK         0.2959 
     71 H71       -80.7811   28.8160  -73.1194 H         1 UNK         0.1079 
     72 H72       -79.1392   26.9953  -72.4054 H         1 UNK         0.0837 
     73 H73       -80.4426   25.8588  -72.3834 H         1 UNK         0.0837 
     74 H74       -79.8287   29.6277  -70.7623 H         1 UNK         0.0685 
     75 H75       -79.5798   29.0177  -69.1442 H         1 UNK         0.0685 
     76 H76       -78.0494   26.5851  -69.4010 H         1 UNK         0.1434 
     77 H77       -74.4092   27.4851  -71.4819 H         1 UNK         0.1329 
     78 H78       -77.7431   30.1682  -71.7334 H         1 UNK         0.1335 
     79 H79       -74.1234   29.7627  -72.4156 H         1 UNK         0.0680 
     80 H80       -75.4567   30.8917  -72.3843 H         1 UNK         0.0680 
     81 H81       -75.8408   31.4172  -75.7046 H         1 UNK         0.1032 
     82 H82       -74.7484   31.7867  -74.4073 H         1 UNK         0.1032 
     83 H83       -74.0866   30.0947  -76.8595 H         1 UNK         0.0461 
     84 H84       -71.4678   31.7722  -77.0449 H         1 UNK         0.3453 
     85 H85       -72.0333   33.1995  -77.8782 H         1 UNK         0.3453 
     86 H86       -72.2898   29.3515  -75.8889 H         1 UNK         0.2984 
     87 H87       -69.8066   30.3387  -74.6534 H         1 UNK         0.0554 
     88 H88       -69.9817   31.2639  -72.3998 H         1 UNK         0.0847 
     89 H89       -69.3431   29.6334  -72.2793 H         1 UNK         0.0847 
     90 H90       -71.0283   29.9586  -71.8729 H         1 UNK         0.0847 
     91 H91       -70.1832   28.2251  -75.1507 H         1 UNK         0.3141 
     92 H92       -70.7112   26.1308  -75.1041 H         1 UNK         0.0743 
     93 H93       -72.4731   25.1440  -72.7981 H         1 UNK         0.0784 
     94 H94       -71.5844   24.1324  -73.9335 H         1 UNK         0.0784 
     95 H95       -70.7145   25.1570  -72.8000 H         1 UNK         0.0784 
     96 H96       -73.4817   25.4689  -75.0262 H         1 UNK         0.3213 
     97 H97       -75.0679   27.3551  -76.6157 H         1 UNK         0.0855 
     98 H98       -73.6001   26.5826  -79.1893 H         1 UNK         0.0814 
     99 H99       -74.0549   28.2054  -78.6951 H         1 UNK         0.0814 
    100 H100      -75.3022   27.0345  -79.0875 H         1 UNK         0.0814 
    101 H101      -75.7962   25.2979  -76.5103 H         1 UNK         0.3105 
    102 H102      -75.7304   22.6334  -77.8112 H         1 UNK         0.0547 
    103 H103      -74.6133   20.8107  -76.4977 H         1 UNK         0.0837 
    104 H104      -73.3628   21.9460  -75.9907 H         1 UNK         0.0837 
    105 H105      -73.5319   21.5144  -77.6857 H         1 UNK         0.0837 
    106 H106      -76.9088   22.7555  -75.9528 H         1 UNK         0.3020 
    107 H107      -76.6582   22.6134  -72.9561 H         1 UNK         0.1245 
    108 H108      -77.4516   24.8509  -71.9232 H         1 UNK         0.0781 
    109 H109      -76.3499   25.6574  -73.0087 H         1 UNK         0.0781 
    110 H110      -74.6715   25.7616  -69.3357 H         1 UNK         0.0836 
    111 H111      -76.2692   25.0697  -69.2294 H         1 UNK         0.0836 
    112 H112      -78.0964   24.4219  -74.8322 H         1 UNK         0.3022 
    113 H113      -80.4530   21.9520  -75.4231 H         1 UNK         0.0747 
    114 H114      -82.3408   23.4466  -74.9293 H         1 UNK         0.0793 
    115 H115      -81.6930   22.8094  -73.4267 H         1 UNK         0.0793 
    116 H116      -81.3302   24.4595  -73.9079 H         1 UNK         0.0793 
    117 H117      -80.3489   24.7525  -76.1483 H         1 UNK         0.3047 
    118 H118      -77.7387   24.4401  -78.5120 H         1 UNK         0.0822 
    119 H119      -79.3590   25.0685  -80.2774 H         1 UNK         0.0807 
    120 H120      -80.7092   24.5468  -79.2680 H         1 UNK         0.0807 
    121 H121      -79.5498   23.3717  -79.8736 H         1 UNK         0.0807 
    122 H122      -79.5758   26.5415  -78.2580 H         1 UNK         0.2946 
    123 H123      -77.6394   28.4613  -76.2415 H         1 UNK         0.1144 
    124 H124      -79.4787   29.7784  -77.2222 H         1 UNK         0.0793 
    125 H125      -80.3784   28.3257  -77.6279 H         1 UNK         0.0793 
    126 H126      -78.8448   28.6781  -78.4277 H         1 UNK         0.0793 
    127 H127      -78.8737   28.6920  -74.4112 H         1 UNK         0.2896 
@<TRIPOS>BOND
     1    1    2 1    
     2    1   67 1    
     3    1   68 1    
     4    1   69 1    
     5    2    3 2    
     6    2    4 am   BACKBONE|DICT|INTERRES
     7    4    5 1    
     8    4   70 1    
     9    5    6 1    
    10    5   65 1    
    11    5   71 1    
    12    6    7 1    
    13    6   72 1    
    14    6   73 1    
    15    7    8 1    
    16    8    9 1    
    17    8   74 1    
    18    8   75 1    
    19    9   10 ar   
    20    9   14 ar   
    21   10   11 ar   
    22   10   76 1    
    23   11   12 ar   
    24   11   48 1    
    25   12   13 ar   
    26   12   77 1    
    27   13   14 ar   
    28   13   15 1    
    29   14   78 1    
    30   15   16 1    
    31   15   79 1    
    32   15   80 1    
    33   16   17 1    
    34   17   18 1    
    35   17   81 1    
    36   17   82 1    
    37   18   19 1    
    38   18   22 1    
    39   18   83 1    
    40   19   20 am   BACKBONE|DICT|INTERRES
    41   19   21 2    
    42   20   84 1    
    43   20   85 1    
    44   22   23 am   BACKBONE|DICT|INTERRES
    45   22   86 1    
    46   23   24 2    
    47   23   25 1    
    48   25   26 1    
    49   25   27 1    
    50   25   87 1    
    51   26   88 1    
    52   26   89 1    
    53   26   90 1    
    54   27   28 am   BACKBONE|DICT|INTERRES
    55   27   91 1    
    56   28   29 2    
    57   28   30 1    
    58   30   31 1    
    59   30   32 1    
    60   30   92 1    
    61   31   93 1    
    62   31   94 1    
    63   31   95 1    
    64   32   33 am   BACKBONE|DICT|INTERRES
    65   32   96 1    
    66   33   34 2    
    67   33   35 1    
    68   35   36 1    
    69   35   37 1    
    70   35   97 1    
    71   36   98 1    
    72   36   99 1    
    73   36  100 1    
    74   37   38 am   BACKBONE|DICT|INTERRES
    75   37  101 1    
    76   38   39 2    
    77   38   40 1    
    78   40   41 1    
    79   40   42 1    
    80   40  102 1    
    81   41  103 1    
    82   41  104 1    
    83   41  105 1    
    84   42   43 am   BACKBONE|DICT|INTERRES
    85   42  106 1    
    86   43   44 2    
    87   43   45 1    
    88   45   46 1    
    89   45   49 1    
    90   45  107 1    
    91   46   47 1    
    92   46  108 1    
    93   46  109 1    
    94   47   48 1    
    95   48  110 1    
    96   48  111 1    
    97   49   50 am   BACKBONE|DICT|INTERRES
    98   49  112 1    
    99   50   51 2    
   100   50   52 1    
   101   52   53 1    
   102   52   54 1    
   103   52  113 1    
   104   53  114 1    
   105   53  115 1    
   106   53  116 1    
   107   54   55 am   BACKBONE|DICT|INTERRES
   108   54  117 1    
   109   55   56 2    
   110   55   57 1    
   111   57   58 1    
   112   57   59 1    
   113   57  118 1    
   114   58  119 1    
   115   58  120 1    
   116   58  121 1    
   117   59   60 am   BACKBONE|DICT|INTERRES
   118   59  122 1    
   119   60   61 2    
   120   60   62 1    
   121   62   63 1    
   122   62   64 1    
   123   62  123 1    
   124   63  124 1    
   125   63  125 1    
   126   63  126 1    
   127   64   65 am   BACKBONE|DICT|INTERRES
   128   64  127 1    
   129   65   66 2    
@<TRIPOS>SUBSTRUCTURE
     1 UNK         1 GROUP             0       ****    0 ROOT    
