@<TRIPOS>MOLECULE
3R135
127   129    1
SMALL
USER_CHARGES


@<TRIPOS>ATOM
      1 CA        -83.8212   27.2506  -71.4553 C.3       0 UNK        -0.1998 
      2 C         -82.9488   27.5039  -72.6756 C.2       0 UNK         0.4909 
      3 O         -81.9676   26.7884  -72.8719 O.2       0 UNK        -0.5240 
      4 N         -83.3159   28.5098  -73.4876 N.am      1 UNK        -0.4739 
      5 CA        -82.6469   28.9796  -74.7163 C.3       1 UNK         0.0864 
      6 C6        -81.5196   30.0378  -74.4858 C.3       11 UNK        -0.0881 
      7 S7        -80.3094   29.7106  -73.1563 S.3       11 UNK        -0.2682 
      8 C8        -79.0858   28.7042  -74.0411 C.3       11 UNK         0.0289 
      9 C9        -77.9887   28.2158  -73.1121 C.ar      11 UNK        -0.0687 
     10 C10       -78.2197   27.1081  -72.2930 C.ar      11 UNK        -0.0823 
     11 C11       -77.2054   26.6101  -71.4718 C.ar      11 UNK        -0.0830 
     12 C12       -75.9551   27.2338  -71.4658 C.ar      11 UNK        -0.1021 
     13 C13       -75.7101   28.3392  -72.2857 C.ar      11 UNK        -0.0753 
     14 C14       -76.7349   28.8343  -73.0993 C.ar      11 UNK        -0.0933 
     15 C15       -74.3198   28.9523  -72.3366 C.3       11 UNK         0.0166 
     16 S16       -74.3004   30.6706  -71.7364 S.3       11 UNK        -0.2615 
     17 C17       -72.5036   30.9863  -71.6429 C.3       11 UNK        -0.0865 
     18 CA        -71.9275   31.6941  -72.8981 C.3       10 UNK         0.0862 
     19 C         -70.4314   32.0641  -72.6679 C.2       10 UNK         0.5551 
     20 N         -69.4732   31.4217  -73.3275 N.am      10 UNK        -0.7319 
     21 O         -70.1384   32.9533  -71.8725 O.2       10 UNK        -0.5018 
     22 N         -72.1710   30.9115  -74.1185 N.am      10 UNK        -0.4509 
     23 C         -72.0330   31.3608  -75.3714 C.2       10 UNK         0.4899 
     24 O         -71.8194   32.5413  -75.6513 O.2       10 UNK        -0.4839 
     25 CA        -72.1489   30.3143  -76.5017 C.3       9 UNK         0.0222 
     26 CB        -71.2384   30.6525  -77.7006 C.3       9 UNK        -0.1966 
     27 N         -71.9328   28.9209  -76.0781 N.am      9 UNK        -0.4218 
     28 C         -70.8404   28.4035  -75.4869 C.2       9 UNK         0.5020 
     29 O         -69.8593   29.0748  -75.1626 O.2       9 UNK        -0.5274 
     30 CA        -70.8461   26.8977  -75.1549 C.3       8 UNK         0.0270 
     31 CB        -71.0670   26.6873  -73.6477 C.3       8 UNK        -0.1976 
     32 N         -71.8535   26.1367  -75.8987 N.am      8 UNK        -0.4313 
     33 C         -71.7807   25.8639  -77.2114 C.2       8 UNK         0.5041 
     34 O         -70.7979   26.1281  -77.9050 O.2       8 UNK        -0.5577 
     35 CA        -73.0106   25.2170  -77.8815 C.3       7 UNK         0.0284 
     36 CB        -72.7720   23.7148  -78.1017 C.3       7 UNK        -0.1958 
     37 N         -74.2664   25.3994  -77.1464 N.am      7 UNK        -0.4454 
     38 C         -74.8229   26.5801  -76.8326 C.2       7 UNK         0.5089 
     39 O         -74.3638   27.6655  -77.1886 O.2       7 UNK        -0.5125 
     40 CA        -76.0536   26.5588  -75.9089 C.3       6 UNK         0.0408 
     41 CB        -77.3347   26.7620  -76.7304 C.3       6 UNK        -0.1791 
     42 N         -76.1688   25.3437  -75.0914 N.am      6 UNK        -0.4762 
     43 C         -75.2515   24.9262  -74.1997 C.2       6 UNK         0.5007 
     44 O         -74.2222   25.5569  -73.9512 O.2       6 UNK        -0.5032 
     45 CA        -75.4424   23.5385  -73.5453 C.3       5 UNK         0.0783 
     46 C46       -75.7341   23.6178  -72.0224 C.3       11 UNK        -0.0857 
     47 S47       -77.4958   23.8615  -71.5947 S.3       11 UNK        -0.2512 
     48 C48       -77.4613   25.3886  -70.6056 C.3       11 UNK         0.0225 
     49 N         -76.3993   22.6781  -74.2478 N.am      5 UNK        -0.4615 
     50 C         -76.2581   22.1976  -75.4891 C.2       4 UNK         0.5053 
     51 O         -75.2595   22.3870  -76.1839 O.2       4 UNK        -0.5105 
     52 CA        -77.4509   21.4134  -76.0665 C.3       4 UNK         0.0263 
     53 CB        -77.2562   19.9051  -75.8452 C.3       4 UNK        -0.1981 
     54 N         -78.7572   21.8213  -75.5277 N.am      4 UNK        -0.4224 
     55 C         -79.2899   23.0441  -75.6623 C.2       3 UNK         0.4895 
     56 O         -78.7149   23.9837  -76.2151 O.2       3 UNK        -0.5091 
     57 CA        -80.6787   23.2657  -75.0560 C.3       3 UNK         0.0250 
     58 CB        -80.5803   23.6032  -73.5583 C.3       3 UNK        -0.1996 
     59 N         -81.3239   24.3655  -75.7681 N.am      3 UNK        -0.4254 
     60 C         -82.6422   24.5266  -75.9114 C.2       2 UNK         0.5004 
     61 O         -83.4849   23.7864  -75.3989 O.2       2 UNK        -0.5226 
     62 CA        -83.0942   25.7315  -76.7483 C.3       2 UNK         0.0269 
     63 CB        -84.4446   25.4801  -77.4455 C.3       2 UNK        -0.1926 
     64 N         -83.2243   26.8921  -75.8712 N.am      2 UNK        -0.4687 
     65 C         -82.3119   27.8640  -75.7388 C.2       1 UNK         0.5165 
     66 O         -81.2751   27.9087  -76.4036 O.2       1 UNK        -0.5079 
     67 H67       -84.2192   26.2366  -71.4837 H         1 UNK         0.0900 
     68 H68       -84.6604   27.9438  -71.4001 H         1 UNK         0.0900 
     69 H69       -83.2309   27.3596  -70.5459 H         1 UNK         0.0900 
     70 H70       -84.1453   29.0331  -73.2430 H         1 UNK         0.2959 
     71 H71       -83.4330   29.5282  -75.2384 H         1 UNK         0.1079 
     72 H72       -80.9862   30.2617  -75.4114 H         1 UNK         0.0837 
     73 H73       -81.9977   30.9805  -74.2160 H         1 UNK         0.0837 
     74 H74       -78.6679   29.2734  -74.8728 H         1 UNK         0.0685 
     75 H75       -79.5853   27.8366  -74.4709 H         1 UNK         0.0685 
     76 H76       -79.1882   26.6255  -72.3079 H         1 UNK         0.1434 
     77 H77       -75.1632   26.8409  -70.8432 H         1 UNK         0.1329 
     78 H78       -76.5450   29.6830  -73.7419 H         1 UNK         0.1335 
     79 H79       -73.9629   28.9163  -73.3660 H         1 UNK         0.0680 
     80 H80       -73.6226   28.3567  -71.7451 H         1 UNK         0.0680 
     81 H81       -72.3375   31.6044  -70.7582 H         1 UNK         0.1032 
     82 H82       -71.9730   30.0519  -71.4503 H         1 UNK         0.1032 
     83 H83       -72.4595   32.6403  -73.0150 H         1 UNK         0.0461 
     84 H84       -68.5115   31.6753  -73.1680 H         1 UNK         0.3453 
     85 H85       -69.6953   30.6772  -73.9809 H         1 UNK         0.3453 
     86 H86       -72.3342   29.9266  -73.9881 H         1 UNK         0.2984 
     87 H87       -73.1821   30.3626  -76.8484 H         1 UNK         0.0554 
     88 H88       -71.3483   29.9201  -78.5004 H         1 UNK         0.0847 
     89 H89       -70.1868   30.6797  -77.4130 H         1 UNK         0.0847 
     90 H90       -71.4859   31.6276  -78.1219 H         1 UNK         0.0847 
     91 H91       -72.6936   28.2904  -76.3164 H         1 UNK         0.3141 
     92 H92       -69.8607   26.5043  -75.4133 H         1 UNK         0.0743 
     93 H93       -70.3043   27.2044  -73.0636 H         1 UNK         0.0784 
     94 H94       -72.0372   27.0650  -73.3242 H         1 UNK         0.0784 
     95 H95       -71.0156   25.6311  -73.3827 H         1 UNK         0.0784 
     96 H96       -72.6913   25.8757  -75.3882 H         1 UNK         0.3213 
     97 H97       -73.1321   25.6932  -78.8566 H         1 UNK         0.0855 
     98 H98       -72.6614   23.1820  -77.1562 H         1 UNK         0.0814 
     99 H99       -71.8642   23.5430  -78.6818 H         1 UNK         0.0814 
    100 H100      -73.5964   23.2567  -78.6486 H         1 UNK         0.0814 
    101 H101      -74.7115   24.5579  -76.7998 H         1 UNK         0.3105 
    102 H102      -75.9489   27.4001  -75.2254 H         1 UNK         0.0547 
    103 H103      -77.4533   25.9872  -77.4886 H         1 UNK         0.0837 
    104 H104      -78.2224   26.7478  -76.0994 H         1 UNK         0.0837 
    105 H105      -77.3187   27.7227  -77.2465 H         1 UNK         0.0837 
    106 H106      -76.9798   24.7610  -75.2692 H         1 UNK         0.3020 
    107 H107      -74.4680   23.0553  -73.6496 H         1 UNK         0.1245 
    108 H108      -75.1170   24.3799  -71.5433 H         1 UNK         0.0781 
    109 H109      -75.4305   22.6777  -71.5593 H         1 UNK         0.0781 
    110 H110      -76.7121   25.2996  -69.8173 H         1 UNK         0.0836 
    111 H111      -78.4218   25.5018  -70.1007 H         1 UNK         0.0836 
    112 H112      -77.2589   22.4926  -73.7514 H         1 UNK         0.3022 
    113 H113      -77.4671   21.6014  -77.1422 H         1 UNK         0.0747 
    114 H114      -78.0394   19.3267  -76.3357 H         1 UNK         0.0793 
    115 H115      -76.3033   19.5701  -76.2578 H         1 UNK         0.0793 
    116 H116      -77.2605   19.6479  -74.7851 H         1 UNK         0.0793 
    117 H117      -79.2898   21.1085  -75.0490 H         1 UNK         0.3047 
    118 H118      -81.2643   22.3536  -75.1906 H         1 UNK         0.0822 
    119 H119      -80.1070   22.7951  -72.9998 H         1 UNK         0.0807 
    120 H120      -81.5661   23.7645  -73.1214 H         1 UNK         0.0807 
    121 H121      -79.9949   24.5083  -73.3908 H         1 UNK         0.0807 
    122 H122      -80.6798   25.0030  -76.2211 H         1 UNK         0.2946 
    123 H123      -82.3475   25.9130  -77.5254 H         1 UNK         0.1144 
    124 H124      -84.3941   24.5976  -78.0847 H         1 UNK         0.0793 
    125 H125      -84.7242   26.3225  -78.0785 H         1 UNK         0.0793 
    126 H126      -85.2517   25.3191  -76.7296 H         1 UNK         0.0793 
    127 H127      -84.0217   26.8986  -75.2509 H         1 UNK         0.2896 
@<TRIPOS>BOND
     1    1    2 1    
     2    1   67 1    
     3    1   68 1    
     4    1   69 1    
     5    2    3 2    
     6    2    4 am   BACKBONE|DICT|INTERRES
     7    4    5 1    
     8    4   70 1    
     9    5    6 1    
    10    5   65 1    
    11    5   71 1    
    12    6    7 1    
    13    6   72 1    
    14    6   73 1    
    15    7    8 1    
    16    8    9 1    
    17    8   74 1    
    18    8   75 1    
    19    9   10 ar   
    20    9   14 ar   
    21   10   11 ar   
    22   10   76 1    
    23   11   12 ar   
    24   11   48 1    
    25   12   13 ar   
    26   12   77 1    
    27   13   14 ar   
    28   13   15 1    
    29   14   78 1    
    30   15   16 1    
    31   15   79 1    
    32   15   80 1    
    33   16   17 1    
    34   17   18 1    
    35   17   81 1    
    36   17   82 1    
    37   18   19 1    
    38   18   22 1    
    39   18   83 1    
    40   19   20 am   BACKBONE|DICT|INTERRES
    41   19   21 2    
    42   20   84 1    
    43   20   85 1    
    44   22   23 am   BACKBONE|DICT|INTERRES
    45   22   86 1    
    46   23   24 2    
    47   23   25 1    
    48   25   26 1    
    49   25   27 1    
    50   25   87 1    
    51   26   88 1    
    52   26   89 1    
    53   26   90 1    
    54   27   28 am   BACKBONE|DICT|INTERRES
    55   27   91 1    
    56   28   29 2    
    57   28   30 1    
    58   30   31 1    
    59   30   32 1    
    60   30   92 1    
    61   31   93 1    
    62   31   94 1    
    63   31   95 1    
    64   32   33 am   BACKBONE|DICT|INTERRES
    65   32   96 1    
    66   33   34 2    
    67   33   35 1    
    68   35   36 1    
    69   35   37 1    
    70   35   97 1    
    71   36   98 1    
    72   36   99 1    
    73   36  100 1    
    74   37   38 am   BACKBONE|DICT|INTERRES
    75   37  101 1    
    76   38   39 2    
    77   38   40 1    
    78   40   41 1    
    79   40   42 1    
    80   40  102 1    
    81   41  103 1    
    82   41  104 1    
    83   41  105 1    
    84   42   43 am   BACKBONE|DICT|INTERRES
    85   42  106 1    
    86   43   44 2    
    87   43   45 1    
    88   45   46 1    
    89   45   49 1    
    90   45  107 1    
    91   46   47 1    
    92   46  108 1    
    93   46  109 1    
    94   47   48 1    
    95   48  110 1    
    96   48  111 1    
    97   49   50 am   BACKBONE|DICT|INTERRES
    98   49  112 1    
    99   50   51 2    
   100   50   52 1    
   101   52   53 1    
   102   52   54 1    
   103   52  113 1    
   104   53  114 1    
   105   53  115 1    
   106   53  116 1    
   107   54   55 am   BACKBONE|DICT|INTERRES
   108   54  117 1    
   109   55   56 2    
   110   55   57 1    
   111   57   58 1    
   112   57   59 1    
   113   57  118 1    
   114   58  119 1    
   115   58  120 1    
   116   58  121 1    
   117   59   60 am   BACKBONE|DICT|INTERRES
   118   59  122 1    
   119   60   61 2    
   120   60   62 1    
   121   62   63 1    
   122   62   64 1    
   123   62  123 1    
   124   63  124 1    
   125   63  125 1    
   126   63  126 1    
   127   64   65 am   BACKBONE|DICT|INTERRES
   128   64  127 1    
   129   65   66 2    
@<TRIPOS>SUBSTRUCTURE
     1 UNK         1 GROUP             0       ****    0 ROOT    
