@<TRIPOS>MOLECULE
3R135
127   129    1
SMALL
USER_CHARGES


@<TRIPOS>ATOM
      1 CA        -76.3100   27.1718  -71.4944 C.3       0 UNK        -0.1998 
      2 C         -77.3086   26.2340  -70.8378 C.2       0 UNK         0.4909 
      3 O         -77.0127   25.6488  -69.7955 O.2       0 UNK        -0.5240 
      4 N         -78.4920   26.0973  -71.4419 N.am      1 UNK        -0.4739 
      5 CA        -79.5790   25.2446  -70.9663 C.3       1 UNK         0.0864 
      6 C6        -80.5065   25.9576  -69.9404 C.3       11 UNK        -0.0881 
      7 S7        -81.4001   27.4339  -70.5496 S.3       11 UNK        -0.2682 
      8 C8        -80.2064   28.7874  -70.2454 C.3       11 UNK         0.0289 
      9 C9        -79.6083   29.4442  -71.4946 C.ar      11 UNK        -0.0687 
     10 C10       -79.9947   29.1030  -72.8002 C.ar      11 UNK        -0.0823 
     11 C11       -79.4358   29.7556  -73.9019 C.ar      11 UNK        -0.0830 
     12 C12       -78.4992   30.7703  -73.7001 C.ar      11 UNK        -0.1021 
     13 C13       -78.0867   31.1126  -72.4114 C.ar      11 UNK        -0.0753 
     14 C14       -78.6456   30.4463  -71.3156 C.ar      11 UNK        -0.0933 
     15 C15       -77.0656   32.2266  -72.2113 C.3       11 UNK         0.0166 
     16 S16       -75.5222   31.9440  -73.1434 S.3       11 UNK        -0.2615 
     17 C17       -74.7148   30.6651  -72.1268 C.3       11 UNK        -0.0865 
     18 CA        -73.2134   30.4952  -72.4859 C.3       10 UNK         0.0862 
     19 C         -72.4452   29.6746  -71.4053 C.2       10 UNK         0.5551 
     20 N         -71.6069   28.7071  -71.7573 N.am      10 UNK        -0.7319 
     21 O         -72.6034   29.9287  -70.2139 O.2       10 UNK        -0.5018 
     22 N         -73.0430   29.9822  -73.8570 N.am      10 UNK        -0.4509 
     23 C         -72.0447   30.3111  -74.6852 C.2       10 UNK         0.4899 
     24 O         -71.1866   31.1564  -74.4246 O.2       10 UNK        -0.4839 
     25 CA        -71.9910   29.5327  -76.0180 C.3       9 UNK         0.0222 
     26 CB        -70.7064   29.8150  -76.8254 C.3       9 UNK        -0.1966 
     27 N         -72.1801   28.0821  -75.8544 N.am      9 UNK        -0.4218 
     28 C         -71.4660   27.2638  -75.0629 C.2       9 UNK         0.5020 
     29 O         -70.5564   27.6476  -74.3268 O.2       9 UNK        -0.5274 
     30 CA        -71.8328   25.7704  -75.0432 C.3       8 UNK         0.0270 
     31 CB        -72.7319   25.4540  -73.8359 C.3       8 UNK        -0.1976 
     32 N         -72.4674   25.2767  -76.2679 N.am      8 UNK        -0.4313 
     33 C         -71.8296   25.0870  -77.4324 C.2       8 UNK         0.5041 
     34 O         -70.6545   25.3989  -77.6283 O.2       8 UNK        -0.5577 
     35 CA        -72.6258   24.4181  -78.5632 C.3       7 UNK         0.0284 
     36 CB        -72.7278   22.9018  -78.3265 C.3       7 UNK        -0.1958 
     37 N         -73.9702   24.9830  -78.6677 N.am      7 UNK        -0.4454 
     38 C         -74.3512   25.8865  -79.5812 C.2       7 UNK         0.5089 
     39 O         -73.6318   26.2839  -80.4983 O.2       7 UNK        -0.5125 
     40 CA        -75.7757   26.4610  -79.4460 C.3       6 UNK         0.0408 
     41 CB        -76.7548   25.6806  -80.3364 C.3       6 UNK        -0.1791 
     42 N         -76.2763   26.4693  -78.0681 N.am      6 UNK        -0.4762 
     43 C         -75.7255   27.1695  -77.0639 C.2       6 UNK         0.5007 
     44 O         -74.7634   27.9238  -77.2062 O.2       6 UNK        -0.5032 
     45 CA        -76.2796   26.9475  -75.6432 C.3       5 UNK         0.0783 
     46 C46       -77.2681   28.0658  -75.2406 C.3       11 UNK        -0.0857 
     47 S47       -78.9827   27.7994  -75.8239 S.3       11 UNK        -0.2512 
     48 C48       -79.8091   29.3440  -75.3186 C.3       11 UNK         0.0225 
     49 N         -76.8468   25.6155  -75.4205 N.am      5 UNK        -0.4615 
     50 C         -76.2500   24.4377  -75.6344 C.2       4 UNK         0.5053 
     51 O         -75.0719   24.3206  -75.9717 O.2       4 UNK        -0.5105 
     52 CA        -77.1346   23.1872  -75.5117 C.3       4 UNK         0.0263 
     53 CB        -76.8857   22.4918  -74.1646 C.3       4 UNK        -0.1981 
     54 N         -78.5693   23.4712  -75.6766 N.am      4 UNK        -0.4224 
     55 C         -79.1323   23.8712  -76.8312 C.2       3 UNK         0.4895 
     56 O         -78.4792   24.0712  -77.8564 O.2       3 UNK        -0.5091 
     57 CA        -80.6552   24.1014  -76.8747 C.3       3 UNK         0.0250 
     58 CB        -81.3051   23.2278  -77.9624 C.3       3 UNK        -0.1996 
     59 N         -81.3057   23.8161  -75.5943 N.am      3 UNK        -0.4254 
     60 C         -81.8834   24.7250  -74.7978 C.2       2 UNK         0.5004 
     61 O         -81.9953   25.9191  -75.0767 O.2       2 UNK        -0.5226 
     62 CA        -82.4063   24.2303  -73.4336 C.3       2 UNK         0.0269 
     63 CB        -82.5597   22.6947  -73.3311 C.3       2 UNK        -0.1926 
     64 N         -81.5811   24.7360  -72.3288 N.am      2 UNK        -0.4687 
     65 C         -80.2548   24.5964  -72.1883 C.2       1 UNK         0.5165 
     66 O         -79.5525   23.9733  -72.9872 O.2       1 UNK        -0.5079 
     67 H67       -76.8168   28.0578  -71.8736 H         1 UNK         0.0900 
     68 H68       -75.5577   27.4972  -70.7759 H         1 UNK         0.0900 
     69 H69       -75.8037   26.6711  -72.3189 H         1 UNK         0.0900 
     70 H70       -78.6785   26.5812  -72.3087 H         1 UNK         0.2959 
     71 H71       -79.1349   24.3946  -70.4426 H         1 UNK         0.1079 
     72 H72       -81.2477   25.2509  -69.5630 H         1 UNK         0.0837 
     73 H73       -79.9240   26.2387  -69.0618 H         1 UNK         0.0837 
     74 H74       -80.7210   29.5580  -69.6699 H         1 UNK         0.0685 
     75 H75       -79.3945   28.4281  -69.6121 H         1 UNK         0.0685 
     76 H76       -80.7243   28.3267  -72.9813 H         1 UNK         0.1434 
     77 H77       -78.0684   31.2815  -74.5504 H         1 UNK         0.1329 
     78 H78       -78.3410   30.7187  -70.3141 H         1 UNK         0.1335 
     79 H79       -77.5080   33.1641  -72.5510 H         1 UNK         0.0680 
     80 H80       -76.8327   32.3644  -71.1544 H         1 UNK         0.0680 
     81 H81       -75.2492   29.7248  -72.2524 H         1 UNK         0.1032 
     82 H82       -74.8339   30.9495  -71.0795 H         1 UNK         0.1032 
     83 H83       -72.7665   31.4901  -72.4383 H         1 UNK         0.0461 
     84 H84       -71.1212   28.2010  -71.0344 H         1 UNK         0.3453 
     85 H85       -71.3952   28.5132  -72.7293 H         1 UNK         0.3453 
     86 H86       -73.6961   29.2734  -74.1514 H         1 UNK         0.2984 
     87 H87       -72.8355   29.8872  -76.6107 H         1 UNK         0.0554 
     88 H88       -70.6092   30.8781  -77.0490 H         1 UNK         0.0847 
     89 H89       -70.7122   29.2838  -77.7772 H         1 UNK         0.0847 
     90 H90       -69.8117   29.5135  -76.2794 H         1 UNK         0.0847 
     91 H91       -72.9384   27.6894  -76.4038 H         1 UNK         0.3141 
     92 H92       -70.8997   25.2177  -74.9134 H         1 UNK         0.0743 
     93 H93       -73.6877   25.9719  -73.8911 H         1 UNK         0.0784 
     94 H94       -72.9357   24.3854  -73.7626 H         1 UNK         0.0784 
     95 H95       -72.2535   25.7554  -72.9027 H         1 UNK         0.0784 
     96 H96       -73.4259   24.9413  -76.1768 H         1 UNK         0.3213 
     97 H97       -72.0766   24.5747  -79.4944 H         1 UNK         0.0855 
     98 H98       -73.2722   22.6664  -77.4110 H         1 UNK         0.0814 
     99 H99       -71.7371   22.4531  -78.2418 H         1 UNK         0.0814 
    100 H100      -73.2370   22.4072  -79.1537 H         1 UNK         0.0814 
    101 H101      -74.6233   24.7359  -77.9329 H         1 UNK         0.3105 
    102 H102      -75.7478   27.4957  -79.7940 H         1 UNK         0.0547 
    103 H103      -76.4336   25.6980  -81.3787 H         1 UNK         0.0837 
    104 H104      -76.8278   24.6348  -80.0352 H         1 UNK         0.0837 
    105 H105      -77.7561   26.1098  -80.2989 H         1 UNK         0.0837 
    106 H106      -77.0555   25.8540  -77.8639 H         1 UNK         0.3020 
    107 H107      -75.4163   27.0276  -74.9823 H         1 UNK         0.1245 
    108 H108      -76.9186   29.0471  -75.5696 H         1 UNK         0.0781 
    109 H109      -77.2988   28.1173  -74.1534 H         1 UNK         0.0781 
    110 H110      -80.8892   29.2089  -75.3918 H         1 UNK         0.0836 
    111 H111      -79.5508   30.1319  -76.0278 H         1 UNK         0.0836 
    112 H112      -77.8273   25.6034  -75.1784 H         1 UNK         0.3022 
    113 H113      -76.8383   22.5011  -76.3080 H         1 UNK         0.0747 
    114 H114      -77.5066   21.6029  -74.0530 H         1 UNK         0.0793 
    115 H115      -75.8455   22.1741  -74.0795 H         1 UNK         0.0793 
    116 H116      -77.0897   23.1535  -73.3221 H         1 UNK         0.0793 
    117 H117      -79.1329   23.4321  -74.8316 H         1 UNK         0.3047 
    118 H118      -80.8005   25.1487  -77.1485 H         1 UNK         0.0822 
    119 H119      -82.3766   23.4159  -78.0323 H         1 UNK         0.0807 
    120 H120      -81.1629   22.1645  -77.7655 H         1 UNK         0.0807 
    121 H121      -80.8777   23.4382  -78.9439 H         1 UNK         0.0807 
    122 H122      -81.2568   22.8613  -75.2676 H         1 UNK         0.2946 
    123 H123      -83.3982   24.6700  -73.3149 H         1 UNK         0.1144 
    124 H124      -83.0363   22.4160  -72.3911 H         1 UNK         0.0793 
    125 H125      -81.6027   22.1738  -73.3758 H         1 UNK         0.0793 
    126 H126      -83.1905   22.3064  -74.1321 H         1 UNK         0.0793 
    127 H127      -82.0567   25.3283  -71.6600 H         1 UNK         0.2896 
@<TRIPOS>BOND
     1    1    2 1    
     2    1   67 1    
     3    1   68 1    
     4    1   69 1    
     5    2    3 2    
     6    2    4 am   BACKBONE|DICT|INTERRES
     7    4    5 1    
     8    4   70 1    
     9    5    6 1    
    10    5   65 1    
    11    5   71 1    
    12    6    7 1    
    13    6   72 1    
    14    6   73 1    
    15    7    8 1    
    16    8    9 1    
    17    8   74 1    
    18    8   75 1    
    19    9   10 ar   
    20    9   14 ar   
    21   10   11 ar   
    22   10   76 1    
    23   11   12 ar   
    24   11   48 1    
    25   12   13 ar   
    26   12   77 1    
    27   13   14 ar   
    28   13   15 1    
    29   14   78 1    
    30   15   16 1    
    31   15   79 1    
    32   15   80 1    
    33   16   17 1    
    34   17   18 1    
    35   17   81 1    
    36   17   82 1    
    37   18   19 1    
    38   18   22 1    
    39   18   83 1    
    40   19   20 am   BACKBONE|DICT|INTERRES
    41   19   21 2    
    42   20   84 1    
    43   20   85 1    
    44   22   23 am   BACKBONE|DICT|INTERRES
    45   22   86 1    
    46   23   24 2    
    47   23   25 1    
    48   25   26 1    
    49   25   27 1    
    50   25   87 1    
    51   26   88 1    
    52   26   89 1    
    53   26   90 1    
    54   27   28 am   BACKBONE|DICT|INTERRES
    55   27   91 1    
    56   28   29 2    
    57   28   30 1    
    58   30   31 1    
    59   30   32 1    
    60   30   92 1    
    61   31   93 1    
    62   31   94 1    
    63   31   95 1    
    64   32   33 am   BACKBONE|DICT|INTERRES
    65   32   96 1    
    66   33   34 2    
    67   33   35 1    
    68   35   36 1    
    69   35   37 1    
    70   35   97 1    
    71   36   98 1    
    72   36   99 1    
    73   36  100 1    
    74   37   38 am   BACKBONE|DICT|INTERRES
    75   37  101 1    
    76   38   39 2    
    77   38   40 1    
    78   40   41 1    
    79   40   42 1    
    80   40  102 1    
    81   41  103 1    
    82   41  104 1    
    83   41  105 1    
    84   42   43 am   BACKBONE|DICT|INTERRES
    85   42  106 1    
    86   43   44 2    
    87   43   45 1    
    88   45   46 1    
    89   45   49 1    
    90   45  107 1    
    91   46   47 1    
    92   46  108 1    
    93   46  109 1    
    94   47   48 1    
    95   48  110 1    
    96   48  111 1    
    97   49   50 am   BACKBONE|DICT|INTERRES
    98   49  112 1    
    99   50   51 2    
   100   50   52 1    
   101   52   53 1    
   102   52   54 1    
   103   52  113 1    
   104   53  114 1    
   105   53  115 1    
   106   53  116 1    
   107   54   55 am   BACKBONE|DICT|INTERRES
   108   54  117 1    
   109   55   56 2    
   110   55   57 1    
   111   57   58 1    
   112   57   59 1    
   113   57  118 1    
   114   58  119 1    
   115   58  120 1    
   116   58  121 1    
   117   59   60 am   BACKBONE|DICT|INTERRES
   118   59  122 1    
   119   60   61 2    
   120   60   62 1    
   121   62   63 1    
   122   62   64 1    
   123   62  123 1    
   124   63  124 1    
   125   63  125 1    
   126   63  126 1    
   127   64   65 am   BACKBONE|DICT|INTERRES
   128   64  127 1    
   129   65   66 2    
@<TRIPOS>SUBSTRUCTURE
     1 UNK         1 GROUP             0       ****    0 ROOT    
