@<TRIPOS>MOLECULE
3R135
127   129    1
SMALL
USER_CHARGES


@<TRIPOS>ATOM
      1 CA        -83.7503   25.0715  -75.1608 C.3       0 UNK        -0.1998 
      2 C         -83.1955   26.4772  -75.3348 C.2       0 UNK         0.4909 
      3 O         -83.3409   27.0605  -76.4080 O.2       0 UNK        -0.5240 
      4 N         -82.5707   27.0200  -74.2821 N.am      1 UNK        -0.4739 
      5 CA        -81.9010   28.3247  -74.2461 C.3       1 UNK         0.0864 
      6 C6        -81.7138   28.8469  -72.7918 C.3       11 UNK        -0.0881 
      7 S7        -81.1976   27.5743  -71.5788 S.3       11 UNK        -0.2682 
      8 C8        -80.0960   28.5111  -70.4753 C.3       11 UNK         0.0289 
      9 C9        -78.6442   28.3937  -70.9097 C.ar      11 UNK        -0.0687 
     10 C10       -77.9117   27.2514  -70.5761 C.ar      11 UNK        -0.0823 
     11 C11       -76.5727   27.1259  -70.9569 C.ar      11 UNK        -0.0830 
     12 C12       -75.9669   28.1572  -71.6807 C.ar      11 UNK        -0.1021 
     13 C13       -76.6831   29.3160  -72.0013 C.ar      11 UNK        -0.0753 
     14 C14       -78.0239   29.4259  -71.6183 C.ar      11 UNK        -0.0933 
     15 C15       -76.0239   30.4442  -72.7801 C.3       11 UNK         0.0166 
     16 S16       -75.2598   31.6934  -71.6955 S.3       11 UNK        -0.2615 
     17 C17       -73.6549   30.9379  -71.2556 C.3       11 UNK        -0.0865 
     18 CA        -72.5045   31.3728  -72.2037 C.3       10 UNK         0.0862 
     19 C         -71.1186   30.9145  -71.6587 C.2       10 UNK         0.5551 
     20 N         -70.3423   30.1095  -72.3759 N.am      10 UNK        -0.7319 
     21 O         -70.7365   31.3066  -70.5589 O.2       10 UNK        -0.5018 
     22 N         -72.7709   30.9549  -73.5870 N.am      10 UNK        -0.4509 
     23 C         -72.2762   31.5305  -74.6879 C.2       10 UNK         0.4899 
     24 O         -71.5838   32.5494  -74.6772 O.2       10 UNK        -0.4839 
     25 CA        -72.6212   30.8389  -76.0253 C.3       9 UNK         0.0222 
     26 CB        -71.5951   31.1556  -77.1339 C.3       9 UNK        -0.1966 
     27 N         -72.8225   29.3838  -75.9123 N.am      9 UNK        -0.4218 
     28 C         -71.9410   28.4775  -75.4579 C.2       9 UNK         0.5020 
     29 O         -70.8302   28.7702  -75.0125 O.2       9 UNK        -0.5274 
     30 CA        -72.3735   26.9982  -75.4462 C.3       8 UNK         0.0270 
     31 CB        -72.6700   26.5458  -74.0065 C.3       8 UNK        -0.1976 
     32 N         -73.5275   26.6723  -76.2928 N.am      8 UNK        -0.4313 
     33 C         -73.5545   26.7372  -77.6312 C.2       8 UNK         0.5041 
     34 O         -72.6135   27.1337  -78.3207 O.2       8 UNK        -0.5577 
     35 CA        -74.8646   26.2689  -78.2881 C.3       7 UNK         0.0284 
     36 CB        -74.8630   26.3934  -79.8270 C.3       7 UNK        -0.1958 
     37 N         -75.2293   24.9136  -77.8579 N.am      7 UNK        -0.4454 
     38 C         -74.5639   23.7724  -78.0971 C.2       7 UNK         0.5089 
     39 O         -73.5272   23.7021  -78.7590 O.2       7 UNK        -0.5125 
     40 CA        -75.1831   22.4883  -77.5090 C.3       6 UNK         0.0408 
     41 CB        -74.2093   21.2902  -77.5097 C.3       6 UNK        -0.1791 
     42 N         -75.7800   22.6819  -76.1821 N.am      6 UNK        -0.4762 
     43 C         -75.1524   23.0267  -75.0438 C.2       6 UNK         0.5007 
     44 O         -73.9398   23.2274  -74.9765 O.2       6 UNK        -0.5032 
     45 CA        -76.0163   23.1730  -73.7696 C.3       5 UNK         0.0783 
     46 C46       -75.5447   24.3504  -72.8766 C.3       11 UNK        -0.0857 
     47 S47       -76.4110   24.3645  -71.2743 S.3       11 UNK        -0.2512 
     48 C48       -75.7748   25.9000  -70.5325 C.3       11 UNK         0.0225 
     49 N         -77.4307   23.3099  -74.1236 N.am      5 UNK        -0.4615 
     50 C         -78.3733   22.3695  -73.9881 C.2       4 UNK         0.5053 
     51 O         -78.1687   21.2588  -73.4989 O.2       4 UNK        -0.5105 
     52 CA        -79.7840   22.7163  -74.5062 C.3       4 UNK         0.0263 
     53 CB        -80.6913   23.1345  -73.3374 C.3       4 UNK        -0.1981 
     54 N         -79.7945   23.7775  -75.5187 N.am      4 UNK        -0.4224 
     55 C         -79.2338   23.6966  -76.7351 C.2       3 UNK         0.4895 
     56 O         -78.7084   22.6775  -77.1816 O.2       3 UNK        -0.5091 
     57 CA        -79.1762   24.9983  -77.5542 C.3       3 UNK         0.0250 
     58 CB        -80.4276   25.1379  -78.4343 C.3       3 UNK        -0.1996 
     59 N         -79.0342   26.1953  -76.7181 N.am      3 UNK        -0.4254 
     60 C         -78.0188   26.4518  -75.8827 C.2       2 UNK         0.5004 
     61 O         -77.0314   25.7251  -75.7755 O.2       2 UNK        -0.5226 
     62 CA        -78.1349   27.6847  -74.9747 C.3       2 UNK         0.0269 
     63 CB        -77.5925   28.9371  -75.6896 C.3       2 UNK        -0.1926 
     64 N         -79.4867   27.8941  -74.4273 N.am      2 UNK        -0.4687 
     65 C         -80.5973   28.2856  -75.0685 C.2       1 UNK         0.5165 
     66 O         -80.6256   28.5604  -76.2685 O.2       1 UNK        -0.5079 
     67 H67       -84.7893   25.0349  -75.4872 H         1 UNK         0.0900 
     68 H68       -83.1792   24.3647  -75.7623 H         1 UNK         0.0900 
     69 H69       -83.7143   24.7455  -74.1215 H         1 UNK         0.0900 
     70 H70       -82.4971   26.4934  -73.4221 H         1 UNK         0.2959 
     71 H71       -82.5491   29.0400  -74.7582 H         1 UNK         0.1079 
     72 H72       -82.6659   29.2459  -72.4383 H         1 UNK         0.0837 
     73 H73       -81.0250   29.6938  -72.7693 H         1 UNK         0.0837 
     74 H74       -80.2008   28.1166  -69.4635 H         1 UNK         0.0685 
     75 H75       -80.4085   29.5552  -70.4236 H         1 UNK         0.0685 
     76 H76       -78.3845   26.4568  -70.0146 H         1 UNK         0.1434 
     77 H77       -74.9330   28.0637  -71.9780 H         1 UNK         0.1329 
     78 H78       -78.5820   30.3175  -71.8692 H         1 UNK         0.1335 
     79 H79       -76.7735   30.9549  -73.3847 H         1 UNK         0.0680 
     80 H80       -75.2964   30.0430  -73.4845 H         1 UNK         0.0680 
     81 H81       -73.7410   29.8527  -71.2201 H         1 UNK         0.1032 
     82 H82       -73.4344   31.2465  -70.2318 H         1 UNK         0.1032 
     83 H83       -72.4731   32.4641  -72.1925 H         1 UNK         0.0461 
     84 H84       -70.6243   29.7801  -73.2930 H         1 UNK         0.3453 
     85 H85       -69.4489   29.8322  -72.0022 H         1 UNK         0.3453 
     86 H86       -73.3046   30.1084  -73.6975 H         1 UNK         0.2984 
     87 H87       -73.5806   31.2539  -76.3374 H         1 UNK         0.0554 
     88 H88       -71.5421   32.2277  -77.3271 H         1 UNK         0.0847 
     89 H89       -71.8636   30.6719  -78.0731 H         1 UNK         0.0847 
     90 H90       -70.5924   30.8243  -76.8618 H         1 UNK         0.0847 
     91 H91       -73.7089   29.0362  -76.2476 H         1 UNK         0.3141 
     92 H92       -71.5230   26.4210  -75.8149 H         1 UNK         0.0743 
     93 H93       -71.8515   26.8040  -73.3327 H         1 UNK         0.0784 
     94 H94       -72.7925   25.4646  -73.9543 H         1 UNK         0.0784 
     95 H95       -73.5753   27.0085  -73.6146 H         1 UNK         0.0784 
     96 H96       -74.3409   26.2977  -75.8240 H         1 UNK         0.3213 
     97 H97       -75.6475   26.9313  -77.9157 H         1 UNK         0.0855 
     98 H98       -74.0732   25.7983  -80.2861 H         1 UNK         0.0814 
     99 H99       -74.7031   27.4284  -80.1314 H         1 UNK         0.0814 
    100 H100      -75.8145   26.0739  -80.2517 H         1 UNK         0.0814 
    101 H101      -76.0207   24.8695  -77.2223 H         1 UNK         0.3105 
    102 H102      -76.0113   22.2306  -78.1707 H         1 UNK         0.0547 
    103 H103      -74.6804   20.3947  -77.1050 H         1 UNK         0.0837 
    104 H104      -73.3135   21.4940  -76.9225 H         1 UNK         0.0837 
    105 H105      -73.8836   21.0525  -78.5230 H         1 UNK         0.0837 
    106 H106      -76.7852   22.5563  -76.1473 H         1 UNK         0.3020 
    107 H107      -75.8640   22.2484  -73.2083 H         1 UNK         0.1245 
    108 H108      -75.6996   25.3075  -73.3779 H         1 UNK         0.0781 
    109 H109      -74.4771   24.2749  -72.6643 H         1 UNK         0.0781 
    110 H110      -74.7162   26.0133  -70.7716 H         1 UNK         0.0836 
    111 H111      -75.8303   25.8087  -69.4468 H         1 UNK         0.0836 
    112 H112      -77.6669   24.1855  -74.5735 H         1 UNK         0.3022 
    113 H113      -80.1968   21.8132  -74.9608 H         1 UNK         0.0747 
    114 H114      -81.7192   23.2831  -73.6662 H         1 UNK         0.0793 
    115 H115      -80.7111   22.3649  -72.5643 H         1 UNK         0.0793 
    116 H116      -80.3480   24.0576  -72.8676 H         1 UNK         0.0793 
    117 H117      -80.1909   24.6626  -75.2411 H         1 UNK         0.3047 
    118 H118      -78.3015   24.9407  -78.2053 H         1 UNK         0.0822 
    119 H119      -80.3596   26.0115  -79.0829 H         1 UNK         0.0807 
    120 H120      -81.3350   25.2361  -77.8368 H         1 UNK         0.0807 
    121 H121      -80.5523   24.2663  -79.0785 H         1 UNK         0.0807 
    122 H122      -79.7774   26.8872  -76.7640 H         1 UNK         0.2946 
    123 H123      -77.4972   27.4929  -74.1104 H         1 UNK         0.1144 
    124 H124      -77.7763   29.8385  -75.1082 H         1 UNK         0.0793 
    125 H125      -78.0516   29.0815  -76.6683 H         1 UNK         0.0793 
    126 H126      -76.5164   28.8583  -75.8469 H         1 UNK         0.0793 
    127 H127      -79.5873   27.6764  -73.4427 H         1 UNK         0.2896 
@<TRIPOS>BOND
     1    1    2 1    
     2    1   67 1    
     3    1   68 1    
     4    1   69 1    
     5    2    3 2    
     6    2    4 am   BACKBONE|DICT|INTERRES
     7    4    5 1    
     8    4   70 1    
     9    5    6 1    
    10    5   65 1    
    11    5   71 1    
    12    6    7 1    
    13    6   72 1    
    14    6   73 1    
    15    7    8 1    
    16    8    9 1    
    17    8   74 1    
    18    8   75 1    
    19    9   10 ar   
    20    9   14 ar   
    21   10   11 ar   
    22   10   76 1    
    23   11   12 ar   
    24   11   48 1    
    25   12   13 ar   
    26   12   77 1    
    27   13   14 ar   
    28   13   15 1    
    29   14   78 1    
    30   15   16 1    
    31   15   79 1    
    32   15   80 1    
    33   16   17 1    
    34   17   18 1    
    35   17   81 1    
    36   17   82 1    
    37   18   19 1    
    38   18   22 1    
    39   18   83 1    
    40   19   20 am   BACKBONE|DICT|INTERRES
    41   19   21 2    
    42   20   84 1    
    43   20   85 1    
    44   22   23 am   BACKBONE|DICT|INTERRES
    45   22   86 1    
    46   23   24 2    
    47   23   25 1    
    48   25   26 1    
    49   25   27 1    
    50   25   87 1    
    51   26   88 1    
    52   26   89 1    
    53   26   90 1    
    54   27   28 am   BACKBONE|DICT|INTERRES
    55   27   91 1    
    56   28   29 2    
    57   28   30 1    
    58   30   31 1    
    59   30   32 1    
    60   30   92 1    
    61   31   93 1    
    62   31   94 1    
    63   31   95 1    
    64   32   33 am   BACKBONE|DICT|INTERRES
    65   32   96 1    
    66   33   34 2    
    67   33   35 1    
    68   35   36 1    
    69   35   37 1    
    70   35   97 1    
    71   36   98 1    
    72   36   99 1    
    73   36  100 1    
    74   37   38 am   BACKBONE|DICT|INTERRES
    75   37  101 1    
    76   38   39 2    
    77   38   40 1    
    78   40   41 1    
    79   40   42 1    
    80   40  102 1    
    81   41  103 1    
    82   41  104 1    
    83   41  105 1    
    84   42   43 am   BACKBONE|DICT|INTERRES
    85   42  106 1    
    86   43   44 2    
    87   43   45 1    
    88   45   46 1    
    89   45   49 1    
    90   45  107 1    
    91   46   47 1    
    92   46  108 1    
    93   46  109 1    
    94   47   48 1    
    95   48  110 1    
    96   48  111 1    
    97   49   50 am   BACKBONE|DICT|INTERRES
    98   49  112 1    
    99   50   51 2    
   100   50   52 1    
   101   52   53 1    
   102   52   54 1    
   103   52  113 1    
   104   53  114 1    
   105   53  115 1    
   106   53  116 1    
   107   54   55 am   BACKBONE|DICT|INTERRES
   108   54  117 1    
   109   55   56 2    
   110   55   57 1    
   111   57   58 1    
   112   57   59 1    
   113   57  118 1    
   114   58  119 1    
   115   58  120 1    
   116   58  121 1    
   117   59   60 am   BACKBONE|DICT|INTERRES
   118   59  122 1    
   119   60   61 2    
   120   60   62 1    
   121   62   63 1    
   122   62   64 1    
   123   62  123 1    
   124   63  124 1    
   125   63  125 1    
   126   63  126 1    
   127   64   65 am   BACKBONE|DICT|INTERRES
   128   64  127 1    
   129   65   66 2    
@<TRIPOS>SUBSTRUCTURE
     1 UNK         1 GROUP             0       ****    0 ROOT    
