@<TRIPOS>MOLECULE
3R135
127   129    1
SMALL
USER_CHARGES


@<TRIPOS>ATOM
      1 CA        -84.0559   24.0792  -73.3605 C.3       0 UNK        -0.1998 
      2 C         -83.1788   25.2748  -73.6979 C.2       0 UNK         0.4909 
      3 O         -83.1194   25.6861  -74.8573 O.2       0 UNK        -0.5240 
      4 N         -82.5027   25.8426  -72.6902 N.am      1 UNK        -0.4739 
      5 CA        -81.6379   27.0180  -72.8342 C.3       1 UNK         0.0864 
      6 C6        -81.2901   27.6465  -71.4626 C.3       11 UNK        -0.0881 
      7 S7        -80.9669   29.4387  -71.6030 S.3       11 UNK        -0.2682 
      8 C8        -79.4644   29.6457  -70.5977 C.3       11 UNK         0.0289 
      9 C9        -78.2121   29.1437  -71.3028 C.ar      11 UNK        -0.0687 
     10 C10       -77.6665   27.9010  -70.9712 C.ar      11 UNK        -0.0823 
     11 C11       -76.4864   27.4578  -71.5746 C.ar      11 UNK        -0.0830 
     12 C12       -75.8459   28.2692  -72.5157 C.ar      11 UNK        -0.1021 
     13 C13       -76.3745   29.5215  -72.8471 C.ar      11 UNK        -0.0753 
     14 C14       -77.5657   29.9459  -72.2482 C.ar      11 UNK        -0.0933 
     15 C15       -75.6508   30.4205  -73.8415 C.3       11 UNK         0.0166 
     16 S16       -75.1017   31.9913  -73.1021 S.3       11 UNK        -0.2615 
     17 C17       -73.8817   31.4393  -71.8603 C.3       11 UNK        -0.0865 
     18 CA        -72.4229   31.7455  -72.2852 C.3       10 UNK         0.0862 
     19 C         -71.4547   31.5607  -71.0844 C.2       10 UNK         0.5551 
     20 N         -71.2145   32.6131  -70.3148 N.am      10 UNK        -0.7319 
     21 O         -70.9576   30.4669  -70.8218 O.2       10 UNK        -0.5018 
     22 N         -72.0169   30.9390  -73.4456 N.am      10 UNK        -0.4509 
     23 C         -70.9276   31.1680  -74.1906 C.2       10 UNK         0.4899 
     24 O         -70.2027   32.1545  -74.0558 O.2       10 UNK        -0.4839 
     25 CA        -70.5657   30.1214  -75.2609 C.3       9 UNK         0.0222 
     26 CB        -69.3742   29.2701  -74.7920 C.3       9 UNK        -0.1966 
     27 N         -71.6737   29.2288  -75.6099 N.am      9 UNK        -0.4218 
     28 C         -72.6990   29.5383  -76.4112 C.2       9 UNK         0.5020 
     29 O         -72.8228   30.6321  -76.9648 O.2       9 UNK        -0.5274 
     30 CA        -73.7555   28.4331  -76.6272 C.3       8 UNK         0.0270 
     31 CB        -74.8916   28.8718  -77.5688 C.3       8 UNK        -0.1976 
     32 N         -73.1910   27.1785  -77.1290 N.am      8 UNK        -0.4313 
     33 C         -72.4623   26.3009  -76.4294 C.2       8 UNK         0.5041 
     34 O         -72.1171   26.4838  -75.2594 O.2       8 UNK        -0.5577 
     35 CA        -72.1136   24.9866  -77.1495 C.3       7 UNK         0.0284 
     36 CB        -71.0627   24.1577  -76.3888 C.3       7 UNK        -0.1958 
     37 N         -73.3241   24.1836  -77.3127 N.am      7 UNK        -0.4454 
     38 C         -74.2830   24.3867  -78.2227 C.2       7 UNK         0.5089 
     39 O         -74.1875   25.2101  -79.1342 O.2       7 UNK        -0.5125 
     40 CA        -75.5855   23.5851  -78.0574 C.3       6 UNK         0.0408 
     41 CB        -75.4286   22.1345  -78.5513 C.3       6 UNK        -0.1791 
     42 N         -76.1493   23.6461  -76.7007 N.am      6 UNK        -0.4762 
     43 C         -75.6733   23.1259  -75.5583 C.2       6 UNK         0.5007 
     44 O         -74.6191   22.4929  -75.4813 O.2       6 UNK        -0.5032 
     45 CA        -76.5090   23.3464  -74.2821 C.3       5 UNK         0.0783 
     46 C46       -76.0989   24.6547  -73.5669 C.3       11 UNK        -0.0857 
     47 S47       -76.8104   24.7277  -71.8917 S.3       11 UNK        -0.2512 
     48 C48       -75.8902   26.1188  -71.1692 C.3       11 UNK         0.0225 
     49 N         -77.9505   23.2901  -74.5478 N.am      5 UNK        -0.4615 
     50 C         -78.6099   22.1792  -74.9034 C.2       4 UNK         0.5053 
     51 O         -78.0864   21.0683  -74.9930 O.2       4 UNK        -0.5105 
     52 CA        -80.1026   22.3327  -75.2257 C.3       4 UNK         0.0263 
     53 CB        -80.9481   22.2446  -73.9462 C.3       4 UNK        -0.1981 
     54 N         -80.3765   23.5873  -75.9309 N.am      4 UNK        -0.4224 
     55 C         -80.1427   23.7705  -77.2395 C.2       3 UNK         0.4895 
     56 O         -79.7643   22.8775  -77.9981 O.2       3 UNK        -0.5091 
     57 CA        -80.3499   25.1858  -77.8067 C.3       3 UNK         0.0250 
     58 CB        -81.7847   25.3523  -78.3316 C.3       3 UNK        -0.1996 
     59 N         -80.0580   26.2475  -76.8418 N.am      3 UNK        -0.4254 
     60 C         -78.8356   26.5372  -76.3720 C.2       2 UNK         0.5004 
     61 O         -77.8114   25.9538  -76.7225 O.2       2 UNK        -0.5226 
     62 CA        -78.7440   27.6382  -75.3012 C.3       2 UNK         0.0269 
     63 CB        -78.5472   29.0093  -75.9646 C.3       2 UNK        -0.1926 
     64 N         -79.9120   27.7067  -74.4203 N.am      2 UNK        -0.4687 
     65 C         -80.3772   26.7032  -73.6654 C.2       1 UNK         0.5165 
     66 O         -79.8707   25.5778  -73.6315 O.2       1 UNK        -0.5079 
     67 H67       -83.6728   23.5319  -72.4994 H         1 UNK         0.0900 
     68 H68       -84.1053   23.3923  -74.2047 H         1 UNK         0.0900 
     69 H69       -85.0692   24.4106  -73.1360 H         1 UNK         0.0900 
     70 H70       -82.5581   25.4428  -71.7645 H         1 UNK         0.2959 
     71 H71       -82.2277   27.7448  -73.3988 H         1 UNK         0.1079 
     72 H72       -82.1313   27.5400  -70.7757 H         1 UNK         0.0837 
     73 H73       -80.4551   27.1287  -70.9881 H         1 UNK         0.0837 
     74 H74       -79.3445   30.7056  -70.3682 H         1 UNK         0.0685 
     75 H75       -79.5969   29.1443  -69.6376 H         1 UNK         0.0685 
     76 H76       -78.1515   27.2788  -70.2316 H         1 UNK         0.1434 
     77 H77       -74.9264   27.9319  -72.9744 H         1 UNK         0.1329 
     78 H78       -77.9757   30.9146  -72.4996 H         1 UNK         0.1335 
     79 H79       -74.7802   29.9177  -74.2567 H         1 UNK         0.0680 
     80 H80       -76.3105   30.6397  -74.6809 H         1 UNK         0.0680 
     81 H81       -74.0066   30.3779  -71.6408 H         1 UNK         0.1032 
     82 H82       -74.1242   31.9610  -70.9323 H         1 UNK         0.1032 
     83 H83       -72.3753   32.7942  -72.5872 H         1 UNK         0.0461 
     84 H84       -70.6013   32.5105  -69.5211 H         1 UNK         0.3453 
     85 H85       -71.6245   33.5118  -70.5172 H         1 UNK         0.3453 
     86 H86       -72.5320   30.0879  -73.6026 H         1 UNK         0.2984 
     87 H87       -70.2629   30.6632  -76.1594 H         1 UNK         0.0554 
     88 H88       -69.0590   28.5676  -75.5639 H         1 UNK         0.0847 
     89 H89       -69.6154   28.6977  -73.8951 H         1 UNK         0.0847 
     90 H90       -68.5134   29.8975  -74.5561 H         1 UNK         0.0847 
     91 H91       -71.6505   28.2796  -75.2383 H         1 UNK         0.3141 
     92 H92       -74.2016   28.2193  -75.6547 H         1 UNK         0.0743 
     93 H93       -75.3799   29.7748  -77.2000 H         1 UNK         0.0784 
     94 H94       -74.5222   29.0875  -78.5721 H         1 UNK         0.0784 
     95 H95       -75.6562   28.0986  -77.6530 H         1 UNK         0.0784 
     96 H96       -73.4530   26.9110  -78.0717 H         1 UNK         0.3213 
     97 H97       -71.7057   25.2344  -78.1320 H         1 UNK         0.0855 
     98 H98       -70.1461   24.7305  -76.2420 H         1 UNK         0.0814 
     99 H99       -70.7965   23.2550  -76.9389 H         1 UNK         0.0814 
    100 H100      -71.4207   23.8555  -75.4035 H         1 UNK         0.0814 
    101 H101      -73.5334   23.5119  -76.5773 H         1 UNK         0.3105 
    102 H102      -76.3297   24.0645  -78.6956 H         1 UNK         0.0547 
    103 H103      -75.1132   22.1132  -79.5951 H         1 UNK         0.0837 
    104 H104      -74.6842   21.5810  -77.9786 H         1 UNK         0.0837 
    105 H105      -76.3722   21.5925  -78.4865 H         1 UNK         0.0837 
    106 H106      -76.9618   24.2547  -76.6242 H         1 UNK         0.3020 
    107 H107      -76.2683   22.5122  -73.6184 H         1 UNK         0.1245 
    108 H108      -76.4189   25.5303  -74.1340 H         1 UNK         0.0781 
    109 H109      -75.0123   24.7205  -73.4781 H         1 UNK         0.0781 
    110 H110      -74.8368   26.0560  -71.4465 H         1 UNK         0.0836 
    111 H111      -75.9201   26.0293  -70.0823 H         1 UNK         0.0836 
    112 H112      -78.4717   24.1498  -74.4181 H         1 UNK         0.3022 
    113 H113      -80.3883   21.4978  -75.8696 H         1 UNK         0.0747 
    114 H114      -82.0102   22.2172  -74.1832 H         1 UNK         0.0793 
    115 H115      -80.7213   21.3330  -73.3915 H         1 UNK         0.0793 
    116 H116      -80.7678   23.0857  -73.2764 H         1 UNK         0.0793 
    117 H117      -80.6482   24.3815  -75.3647 H         1 UNK         0.3047 
    118 H118      -79.6635   25.3030  -78.6484 H         1 UNK         0.0822 
    119 H119      -81.9231   26.3222  -78.8096 H         1 UNK         0.0807 
    120 H120      -82.5208   25.2633  -77.5316 H         1 UNK         0.0807 
    121 H121      -82.0187   24.5894  -79.0756 H         1 UNK         0.0807 
    122 H122      -80.8466   26.7640  -76.4784 H         1 UNK         0.2946 
    123 H123      -77.8750   27.4232  -74.6758 H         1 UNK         0.1144 
    124 H124      -78.4582   29.8012  -75.2216 H         1 UNK         0.0793 
    125 H125      -79.3794   29.2633  -76.6223 H         1 UNK         0.0793 
    126 H126      -77.6404   29.0244  -76.5678 H         1 UNK         0.0793 
    127 H127      -80.3738   28.6032  -74.3608 H         1 UNK         0.2896 
@<TRIPOS>BOND
     1    1    2 1    
     2    1   67 1    
     3    1   68 1    
     4    1   69 1    
     5    2    3 2    
     6    2    4 am   BACKBONE|DICT|INTERRES
     7    4    5 1    
     8    4   70 1    
     9    5    6 1    
    10    5   65 1    
    11    5   71 1    
    12    6    7 1    
    13    6   72 1    
    14    6   73 1    
    15    7    8 1    
    16    8    9 1    
    17    8   74 1    
    18    8   75 1    
    19    9   10 ar   
    20    9   14 ar   
    21   10   11 ar   
    22   10   76 1    
    23   11   12 ar   
    24   11   48 1    
    25   12   13 ar   
    26   12   77 1    
    27   13   14 ar   
    28   13   15 1    
    29   14   78 1    
    30   15   16 1    
    31   15   79 1    
    32   15   80 1    
    33   16   17 1    
    34   17   18 1    
    35   17   81 1    
    36   17   82 1    
    37   18   19 1    
    38   18   22 1    
    39   18   83 1    
    40   19   20 am   BACKBONE|DICT|INTERRES
    41   19   21 2    
    42   20   84 1    
    43   20   85 1    
    44   22   23 am   BACKBONE|DICT|INTERRES
    45   22   86 1    
    46   23   24 2    
    47   23   25 1    
    48   25   26 1    
    49   25   27 1    
    50   25   87 1    
    51   26   88 1    
    52   26   89 1    
    53   26   90 1    
    54   27   28 am   BACKBONE|DICT|INTERRES
    55   27   91 1    
    56   28   29 2    
    57   28   30 1    
    58   30   31 1    
    59   30   32 1    
    60   30   92 1    
    61   31   93 1    
    62   31   94 1    
    63   31   95 1    
    64   32   33 am   BACKBONE|DICT|INTERRES
    65   32   96 1    
    66   33   34 2    
    67   33   35 1    
    68   35   36 1    
    69   35   37 1    
    70   35   97 1    
    71   36   98 1    
    72   36   99 1    
    73   36  100 1    
    74   37   38 am   BACKBONE|DICT|INTERRES
    75   37  101 1    
    76   38   39 2    
    77   38   40 1    
    78   40   41 1    
    79   40   42 1    
    80   40  102 1    
    81   41  103 1    
    82   41  104 1    
    83   41  105 1    
    84   42   43 am   BACKBONE|DICT|INTERRES
    85   42  106 1    
    86   43   44 2    
    87   43   45 1    
    88   45   46 1    
    89   45   49 1    
    90   45  107 1    
    91   46   47 1    
    92   46  108 1    
    93   46  109 1    
    94   47   48 1    
    95   48  110 1    
    96   48  111 1    
    97   49   50 am   BACKBONE|DICT|INTERRES
    98   49  112 1    
    99   50   51 2    
   100   50   52 1    
   101   52   53 1    
   102   52   54 1    
   103   52  113 1    
   104   53  114 1    
   105   53  115 1    
   106   53  116 1    
   107   54   55 am   BACKBONE|DICT|INTERRES
   108   54  117 1    
   109   55   56 2    
   110   55   57 1    
   111   57   58 1    
   112   57   59 1    
   113   57  118 1    
   114   58  119 1    
   115   58  120 1    
   116   58  121 1    
   117   59   60 am   BACKBONE|DICT|INTERRES
   118   59  122 1    
   119   60   61 2    
   120   60   62 1    
   121   62   63 1    
   122   62   64 1    
   123   62  123 1    
   124   63  124 1    
   125   63  125 1    
   126   63  126 1    
   127   64   65 am   BACKBONE|DICT|INTERRES
   128   64  127 1    
   129   65   66 2    
@<TRIPOS>SUBSTRUCTURE
     1 UNK         1 GROUP             0       ****    0 ROOT    
