@<TRIPOS>MOLECULE
3R135
127   129    1
SMALL
USER_CHARGES


@<TRIPOS>ATOM
      1 CA        -79.4769   32.6576  -76.6586 C.3       0 UNK        -0.1998 
      2 C         -79.9113   31.4427  -75.8523 C.2       0 UNK         0.4909 
      3 O         -81.1094   31.2427  -75.6471 O.2       0 UNK        -0.5240 
      4 N         -78.9406   30.6402  -75.3996 N.am      1 UNK        -0.4739 
      5 CA        -79.1053   29.3933  -74.6420 C.3       1 UNK         0.0864 
      6 C6        -79.7752   29.5778  -73.2503 C.3       11 UNK        -0.0881 
      7 S7        -78.8338   30.7313  -72.1958 S.3       11 UNK        -0.2682 
      8 C8        -78.8236   29.8597  -70.5965 C.3       11 UNK         0.0289 
      9 C9        -77.8962   28.6500  -70.5792 C.ar      11 UNK        -0.0687 
     10 C10       -78.4007   27.3740  -70.3103 C.ar      11 UNK        -0.0823 
     11 C11       -77.5452   26.2729  -70.1892 C.ar      11 UNK        -0.0830 
     12 C12       -76.1687   26.4590  -70.3839 C.ar      11 UNK        -0.1021 
     13 C13       -75.6486   27.7313  -70.6577 C.ar      11 UNK        -0.0753 
     14 C14       -76.5200   28.8204  -70.7446 C.ar      11 UNK        -0.0933 
     15 C15       -74.1412   27.9425  -70.7641 C.3       11 UNK         0.0166 
     16 S16       -73.5798   28.3429  -72.4527 S.3       11 UNK        -0.2615 
     17 C17       -73.7934   30.1585  -72.5432 C.3       11 UNK        -0.0865 
     18 CA        -74.8293   30.5975  -73.6125 C.3       10 UNK         0.0862 
     19 C         -75.0090   32.1397  -73.6002 C.2       10 UNK         0.5551 
     20 N         -76.1341   32.6347  -73.1039 N.am      10 UNK        -0.7319 
     21 O         -74.1166   32.8857  -73.9977 O.2       10 UNK        -0.5018 
     22 N         -74.4542   30.0780  -74.9334 N.am      10 UNK        -0.4509 
     23 C         -75.1380   30.2071  -76.0759 C.2       10 UNK         0.4899 
     24 O         -76.1988   30.8249  -76.1712 O.2       10 UNK        -0.4839 
     25 CA        -74.5964   29.4624  -77.3127 C.3       9 UNK         0.0222 
     26 CB        -74.3653   30.4148  -78.5039 C.3       9 UNK        -0.1966 
     27 N         -73.4304   28.6009  -77.0460 N.am      9 UNK        -0.4218 
     28 C         -72.1552   28.9590  -76.8171 C.2       9 UNK         0.5020 
     29 O         -71.7634   30.1253  -76.8509 O.2       9 UNK        -0.5274 
     30 CA        -71.1460   27.8537  -76.4341 C.3       8 UNK         0.0270 
     31 CB        -70.3250   28.2614  -75.1962 C.3       8 UNK        -0.1976 
     32 N         -71.7803   26.5622  -76.1588 N.am      8 UNK        -0.4313 
     33 C         -72.0034   25.5921  -77.0558 C.2       8 UNK         0.5041 
     34 O         -71.6339   25.6455  -78.2290 O.2       8 UNK        -0.5577 
     35 CA        -72.8070   24.3680  -76.5683 C.3       7 UNK         0.0284 
     36 CB        -71.8607   23.2262  -76.1653 C.3       7 UNK        -0.1958 
     37 N         -73.7191   24.6565  -75.4531 N.am      7 UNK        -0.4454 
     38 C         -74.7207   25.5433  -75.4950 C.2       7 UNK         0.5089 
     39 O         -74.9983   26.2089  -76.4936 O.2       7 UNK        -0.5125 
     40 CA        -75.5124   25.7351  -74.1962 C.3       6 UNK         0.0408 
     41 CB        -76.4311   26.9615  -74.2491 C.3       6 UNK        -0.1791 
     42 N         -76.3411   24.5794  -73.9072 N.am      6 UNK        -0.4762 
     43 C         -75.9495   23.4702  -73.2750 C.2       6 UNK         0.5007 
     44 O         -74.7785   23.2204  -72.9828 O.2       6 UNK        -0.5032 
     45 CA        -77.0765   22.4910  -72.9102 C.3       5 UNK         0.0783 
     46 C46       -78.0412   23.0980  -71.8589 C.3       11 UNK        -0.0857 
     47 S47       -77.2488   23.4338  -70.2507 S.3       11 UNK        -0.2512 
     48 C48       -78.1339   24.9398  -69.7164 C.3       11 UNK         0.0225 
     49 N         -77.8013   22.1477  -74.1317 N.am      5 UNK        -0.4615 
     50 C         -77.6404   21.0244  -74.8398 C.2       4 UNK         0.5053 
     51 O         -76.9308   20.0833  -74.4841 O.2       4 UNK        -0.5105 
     52 CA        -78.3960   20.9351  -76.1806 C.3       4 UNK         0.0263 
     53 CB        -79.7466   20.2268  -75.9889 C.3       4 UNK        -0.1981 
     54 N         -78.6211   22.2428  -76.8059 N.am      4 UNK        -0.4224 
     55 C         -77.6498   23.0388  -77.2761 C.2       3 UNK         0.4895 
     56 O         -76.4652   22.7079  -77.3298 O.2       3 UNK        -0.5091 
     57 CA        -78.0513   24.4472  -77.7547 C.3       3 UNK         0.0250 
     58 CB        -78.1321   24.4846  -79.2893 C.3       3 UNK        -0.1996 
     59 N         -79.2932   25.0037  -77.1962 N.am      3 UNK        -0.4254 
     60 C         -79.5690   25.1696  -75.8953 C.2       2 UNK         0.5004 
     61 O         -78.8902   24.7038  -74.9785 O.2       2 UNK        -0.5226 
     62 CA        -80.7894   26.0317  -75.5425 C.3       2 UNK         0.0269 
     63 CB        -81.7446   25.2747  -74.6044 C.3       2 UNK        -0.1926 
     64 N         -80.3363   27.2589  -74.8841 N.am      2 UNK        -0.4687 
     65 C         -79.7285   28.2753  -75.5144 C.2       1 UNK         0.5165 
     66 O         -79.6045   28.3164  -76.7417 O.2       1 UNK        -0.5079 
     67 H67       -78.3922   32.7147  -76.7533 H         1 UNK         0.0900 
     68 H68       -79.8234   33.5714  -76.1768 H         1 UNK         0.0900 
     69 H69       -79.9032   32.6155  -77.6605 H         1 UNK         0.0900 
     70 H70       -77.9780   30.8436  -75.6621 H         1 UNK         0.2959 
     71 H71       -78.0857   29.0626  -74.4544 H         1 UNK         0.1079 
     72 H72       -79.8429   28.6269  -72.7215 H         1 UNK         0.0837 
     73 H73       -80.7977   29.9448  -73.3503 H         1 UNK         0.0837 
     74 H74       -78.4974   30.5581  -69.8245 H         1 UNK         0.0685 
     75 H75       -79.8452   29.5776  -70.3370 H         1 UNK         0.0685 
     76 H76       -79.4610   27.2475  -70.1379 H         1 UNK         0.1434 
     77 H77       -75.4920   25.6235  -70.2726 H         1 UNK         0.1329 
     78 H78       -76.1303   29.8129  -70.9136 H         1 UNK         0.1335 
     79 H79       -73.8278   28.7244  -70.0710 H         1 UNK         0.0680 
     80 H80       -73.6178   27.0397  -70.4461 H         1 UNK         0.0680 
     81 H81       -74.0658   30.5472  -71.5612 H         1 UNK         0.1032 
     82 H82       -72.8176   30.5953  -72.7658 H         1 UNK         0.1032 
     83 H83       -75.7887   30.1415  -73.3609 H         1 UNK         0.0461 
     84 H84       -76.8793   32.0309  -72.7870 H         1 UNK         0.3453 
     85 H85       -76.2562   33.6345  -73.0757 H         1 UNK         0.3453 
     86 H86       -73.5842   29.5704  -74.9647 H         1 UNK         0.2984 
     87 H87       -75.3909   28.7745  -77.6057 H         1 UNK         0.0554 
     88 H88       -73.9975   29.8778  -79.3780 H         1 UNK         0.0847 
     89 H89       -73.6512   31.2033  -78.2658 H         1 UNK         0.0847 
     90 H90       -75.2957   30.9050  -78.7931 H         1 UNK         0.0847 
     91 H91       -73.6686   27.6163  -76.9644 H         1 UNK         0.3141 
     92 H92       -70.4573   27.7465  -77.2747 H         1 UNK         0.0743 
     93 H93       -70.9606   28.4316  -74.3262 H         1 UNK         0.0784 
     94 H94       -69.5959   27.4944  -74.9339 H         1 UNK         0.0784 
     95 H95       -69.7675   29.1814  -75.3773 H         1 UNK         0.0784 
     96 H96       -72.1166   26.4173  -75.2174 H         1 UNK         0.3213 
     97 H97       -73.4185   24.0276  -77.4070 H         1 UNK         0.0855 
     98 H98       -71.2427   23.4966  -75.3082 H         1 UNK         0.0814 
     99 H99       -71.1878   22.9696  -76.9849 H         1 UNK         0.0814 
    100 H100      -72.4153   22.3231  -75.9094 H         1 UNK         0.0814 
    101 H101      -73.6072   24.1154  -74.6030 H         1 UNK         0.3105 
    102 H102      -74.8027   25.8745  -73.3793 H         1 UNK         0.0547 
    103 H103      -77.1409   26.8914  -75.0728 H         1 UNK         0.0837 
    104 H104      -76.9922   27.0791  -73.3219 H         1 UNK         0.0837 
    105 H105      -75.8511   27.8684  -74.3936 H         1 UNK         0.0837 
    106 H106      -77.3174   24.6596  -74.1885 H         1 UNK         0.3020 
    107 H107      -76.6166   21.5973  -72.4819 H         1 UNK         0.1245 
    108 H108      -78.5001   24.0141  -72.2371 H         1 UNK         0.0781 
    109 H109      -78.8657   22.4068  -71.6777 H         1 UNK         0.0781 
    110 H110      -79.1802   24.8571  -70.0153 H         1 UNK         0.0836 
    111 H111      -78.1356   24.9525  -68.6258 H         1 UNK         0.0836 
    112 H112      -78.3694   22.8910  -74.5267 H         1 UNK         0.3022 
    113 H113      -77.7872   20.3366  -76.8617 H         1 UNK         0.0747 
    114 H114      -80.2602   20.0861  -76.9402 H         1 UNK         0.0793 
    115 H115      -79.6091   19.2384  -75.5479 H         1 UNK         0.0793 
    116 H116      -80.4081   20.7890  -75.3283 H         1 UNK         0.0793 
    117 H117      -79.5679   22.5928  -76.8105 H         1 UNK         0.3047 
    118 H118      -77.2468   25.1170  -77.4460 H         1 UNK         0.0822 
    119 H119      -78.2752   25.5015  -79.6554 H         1 UNK         0.0807 
    120 H120      -78.9523   23.8714  -79.6649 H         1 UNK         0.0807 
    121 H121      -77.2116   24.1096  -79.7395 H         1 UNK         0.0807 
    122 H122      -79.9164   25.4302  -77.8672 H         1 UNK         0.2946 
    123 H123      -81.3322   26.2928  -76.4541 H         1 UNK         0.1144 
    124 H124      -82.6230   25.8745  -74.3656 H         1 UNK         0.0793 
    125 H125      -81.2617   24.9998  -73.6654 H         1 UNK         0.0793 
    126 H126      -82.0987   24.3537  -75.0695 H         1 UNK         0.0793 
    127 H127      -80.3777   27.2618  -73.8760 H         1 UNK         0.2896 
@<TRIPOS>BOND
     1    1    2 1    
     2    1   67 1    
     3    1   68 1    
     4    1   69 1    
     5    2    3 2    
     6    2    4 am   BACKBONE|DICT|INTERRES
     7    4    5 1    
     8    4   70 1    
     9    5    6 1    
    10    5   65 1    
    11    5   71 1    
    12    6    7 1    
    13    6   72 1    
    14    6   73 1    
    15    7    8 1    
    16    8    9 1    
    17    8   74 1    
    18    8   75 1    
    19    9   10 ar   
    20    9   14 ar   
    21   10   11 ar   
    22   10   76 1    
    23   11   12 ar   
    24   11   48 1    
    25   12   13 ar   
    26   12   77 1    
    27   13   14 ar   
    28   13   15 1    
    29   14   78 1    
    30   15   16 1    
    31   15   79 1    
    32   15   80 1    
    33   16   17 1    
    34   17   18 1    
    35   17   81 1    
    36   17   82 1    
    37   18   19 1    
    38   18   22 1    
    39   18   83 1    
    40   19   20 am   BACKBONE|DICT|INTERRES
    41   19   21 2    
    42   20   84 1    
    43   20   85 1    
    44   22   23 am   BACKBONE|DICT|INTERRES
    45   22   86 1    
    46   23   24 2    
    47   23   25 1    
    48   25   26 1    
    49   25   27 1    
    50   25   87 1    
    51   26   88 1    
    52   26   89 1    
    53   26   90 1    
    54   27   28 am   BACKBONE|DICT|INTERRES
    55   27   91 1    
    56   28   29 2    
    57   28   30 1    
    58   30   31 1    
    59   30   32 1    
    60   30   92 1    
    61   31   93 1    
    62   31   94 1    
    63   31   95 1    
    64   32   33 am   BACKBONE|DICT|INTERRES
    65   32   96 1    
    66   33   34 2    
    67   33   35 1    
    68   35   36 1    
    69   35   37 1    
    70   35   97 1    
    71   36   98 1    
    72   36   99 1    
    73   36  100 1    
    74   37   38 am   BACKBONE|DICT|INTERRES
    75   37  101 1    
    76   38   39 2    
    77   38   40 1    
    78   40   41 1    
    79   40   42 1    
    80   40  102 1    
    81   41  103 1    
    82   41  104 1    
    83   41  105 1    
    84   42   43 am   BACKBONE|DICT|INTERRES
    85   42  106 1    
    86   43   44 2    
    87   43   45 1    
    88   45   46 1    
    89   45   49 1    
    90   45  107 1    
    91   46   47 1    
    92   46  108 1    
    93   46  109 1    
    94   47   48 1    
    95   48  110 1    
    96   48  111 1    
    97   49   50 am   BACKBONE|DICT|INTERRES
    98   49  112 1    
    99   50   51 2    
   100   50   52 1    
   101   52   53 1    
   102   52   54 1    
   103   52  113 1    
   104   53  114 1    
   105   53  115 1    
   106   53  116 1    
   107   54   55 am   BACKBONE|DICT|INTERRES
   108   54  117 1    
   109   55   56 2    
   110   55   57 1    
   111   57   58 1    
   112   57   59 1    
   113   57  118 1    
   114   58  119 1    
   115   58  120 1    
   116   58  121 1    
   117   59   60 am   BACKBONE|DICT|INTERRES
   118   59  122 1    
   119   60   61 2    
   120   60   62 1    
   121   62   63 1    
   122   62   64 1    
   123   62  123 1    
   124   63  124 1    
   125   63  125 1    
   126   63  126 1    
   127   64   65 am   BACKBONE|DICT|INTERRES
   128   64  127 1    
   129   65   66 2    
@<TRIPOS>SUBSTRUCTURE
     1 UNK         1 GROUP             0       ****    0 ROOT    
