@<TRIPOS>MOLECULE
3R135
127   129    1
SMALL
USER_CHARGES


@<TRIPOS>ATOM
      1 CA        -82.2605   23.5983  -72.8463 C.3       0 UNK        -0.1998 
      2 C         -83.1124   24.8251  -72.5608 C.2       0 UNK         0.4909 
      3 O         -84.3361   24.7225  -72.4744 O.2       0 UNK        -0.5240 
      4 N         -82.4794   25.9967  -72.4421 N.am      1 UNK        -0.4739 
      5 CA        -83.0975   27.3064  -72.1892 C.3       1 UNK         0.0864 
      6 C6        -82.1355   28.2444  -71.4050 C.3       11 UNK        -0.0881 
      7 S7        -80.4198   28.2710  -72.0491 S.3       11 UNK        -0.2682 
      8 C8        -79.5609   27.4155  -70.6903 C.3       11 UNK         0.0289 
      9 C9        -78.1171   27.0658  -71.0247 C.ar      11 UNK        -0.0687 
     10 C10       -77.6805   25.7415  -70.9327 C.ar      11 UNK        -0.0823 
     11 C11       -76.3387   25.4186  -71.1492 C.ar      11 UNK        -0.0830 
     12 C12       -75.4362   26.4291  -71.4960 C.ar      11 UNK        -0.1021 
     13 C13       -75.8571   27.7593  -71.6074 C.ar      11 UNK        -0.0753 
     14 C14       -77.2007   28.0685  -71.3559 C.ar      11 UNK        -0.0933 
     15 C15       -74.8188   28.8348  -71.9299 C.3       11 UNK         0.0166 
     16 S16       -75.4833   30.3462  -72.7096 S.3       11 UNK        -0.2615 
     17 C17       -73.9540   31.3111  -72.9552 C.3       11 UNK        -0.0865 
     18 CA        -73.5591   31.4654  -74.4479 C.3       10 UNK         0.0862 
     19 C         -72.3200   32.4012  -74.5807 C.2       10 UNK         0.5551 
     20 N         -71.1441   31.9079  -74.9540 N.am      10 UNK        -0.7319 
     21 O         -72.4324   33.6003  -74.3380 O.2       10 UNK        -0.5018 
     22 N         -73.4091   30.1625  -75.1151 N.am      10 UNK        -0.4509 
     23 C         -73.3254   29.9809  -76.4395 C.2       10 UNK         0.4899 
     24 O         -73.5131   30.8784  -77.2622 O.2       10 UNK        -0.4839 
     25 CA        -72.9642   28.5611  -76.9283 C.3       9 UNK         0.0222 
     26 CB        -72.1642   28.5819  -78.2470 C.3       9 UNK        -0.1966 
     27 N         -72.2735   27.7291  -75.9324 N.am      9 UNK        -0.4218 
     28 C         -71.1230   27.9902  -75.2897 C.2       9 UNK         0.5020 
     29 O         -70.4773   29.0303  -75.4262 O.2       9 UNK        -0.5274 
     30 CA        -70.6269   26.9215  -74.3061 C.3       8 UNK         0.0270 
     31 CB        -71.4422   26.9682  -73.0026 C.3       8 UNK        -0.1976 
     32 N         -70.7290   25.5837  -74.8899 N.am      8 UNK        -0.4313 
     33 C         -69.6959   24.8566  -75.3361 C.2       8 UNK         0.5041 
     34 O         -68.5194   25.2141  -75.2603 O.2       8 UNK        -0.5577 
     35 CA        -70.0198   23.4898  -75.9714 C.3       7 UNK         0.0284 
     36 CB        -69.8625   22.3664  -74.9335 C.3       7 UNK        -0.1958 
     37 N         -71.3629   23.4213  -76.5534 N.am      7 UNK        -0.4454 
     38 C         -71.7582   24.0984  -77.6400 C.2       7 UNK         0.5089 
     39 O         -71.0050   24.7874  -78.3278 O.2       7 UNK        -0.5125 
     40 CA        -73.2505   24.0171  -78.0137 C.3       6 UNK         0.0408 
     41 CB        -73.4597   23.0037  -79.1502 C.3       6 UNK        -0.1791 
     42 N         -74.1663   23.6976  -76.9079 N.am      6 UNK        -0.4762 
     43 C         -74.3141   24.4180  -75.7867 C.2       6 UNK         0.5007 
     44 O         -73.5819   25.3604  -75.4761 O.2       6 UNK        -0.5032 
     45 CA        -75.4597   24.0271  -74.8362 C.3       5 UNK         0.0783 
     46 C46       -74.8864   23.4382  -73.5267 C.3       11 UNK        -0.0857 
     47 S47       -76.1954   22.9189  -72.3693 S.3       11 UNK        -0.2512 
     48 C48       -75.8611   23.9882  -70.9355 C.3       11 UNK         0.0225 
     49 N         -76.3127   25.1953  -74.6000 N.am      5 UNK        -0.4615 
     50 C         -77.0872   25.7581  -75.5338 C.2       4 UNK         0.5053 
     51 O         -77.2284   25.3014  -76.6716 O.2       4 UNK        -0.5105 
     52 CA        -77.7705   27.0786  -75.1490 C.3       4 UNK         0.0263 
     53 CB        -76.7852   28.2457  -75.3240 C.3       4 UNK        -0.1981 
     54 N         -78.9444   27.3240  -75.9871 N.am      4 UNK        -0.4224 
     55 C         -80.1232   26.7123  -75.8331 C.2       3 UNK         0.4895 
     56 O         -80.3964   25.9503  -74.9001 O.2       3 UNK        -0.5091 
     57 CA        -81.1711   26.9822  -76.9189 C.3       3 UNK         0.0250 
     58 CB        -81.0547   25.9684  -78.0701 C.3       3 UNK        -0.1996 
     59 N         -82.4809   26.8780  -76.2946 N.am      3 UNK        -0.4254 
     60 C         -83.5812   27.5594  -76.6308 C.2       2 UNK         0.5004 
     61 O         -83.6737   28.2691  -77.6330 O.2       2 UNK        -0.5226 
     62 CA        -84.7749   27.4504  -75.6618 C.3       2 UNK         0.0269 
     63 CB        -85.7752   26.3916  -76.1526 C.3       2 UNK        -0.1926 
     64 N         -84.3597   27.1239  -74.2922 N.am      2 UNK        -0.4687 
     65 C         -83.6475   27.9322  -73.4928 C.2       1 UNK         0.5165 
     66 O         -83.4008   29.1054  -73.7786 O.2       1 UNK        -0.5079 
     67 H67       -81.2066   23.8541  -72.9591 H         1 UNK         0.0900 
     68 H68       -82.5908   23.1178  -73.7667 H         1 UNK         0.0900 
     69 H69       -82.3519   22.8795  -72.0326 H         1 UNK         0.0900 
     70 H70       -81.4814   26.0360  -72.6088 H         1 UNK         0.2959 
     71 H71       -83.9740   27.1531  -71.5552 H         1 UNK         0.1079 
     72 H72       -82.5145   29.2675  -71.3708 H         1 UNK         0.0837 
     73 H73       -82.1144   27.9266  -70.3616 H         1 UNK         0.0837 
     74 H74       -80.1189   26.5132  -70.4346 H         1 UNK         0.0685 
     75 H75       -79.5753   28.0505  -69.8034 H         1 UNK         0.0685 
     76 H76       -78.3765   24.9616  -70.6546 H         1 UNK         0.1434 
     77 H77       -74.3937   26.1843  -71.6469 H         1 UNK         0.1329 
     78 H78       -77.5434   29.0926  -71.3999 H         1 UNK         0.1335 
     79 H79       -74.0633   28.4188  -72.5961 H         1 UNK         0.0680 
     80 H80       -74.3087   29.1083  -71.0053 H         1 UNK         0.0680 
     81 H81       -74.1190   32.2932  -72.5073 H         1 UNK         0.1032 
     82 H82       -73.1362   30.8621  -72.3882 H         1 UNK         0.1032 
     83 H83       -74.3805   31.9817  -74.9486 H         1 UNK         0.0461 
     84 H84       -71.0285   30.9187  -75.1508 H         1 UNK         0.3453 
     85 H85       -70.3548   32.5283  -75.0364 H         1 UNK         0.3453 
     86 H86       -73.2449   29.3709  -74.5148 H         1 UNK         0.2984 
     87 H87       -73.9135   28.0612  -77.1260 H         1 UNK         0.0554 
     88 H88       -71.9383   27.5717  -78.5891 H         1 UNK         0.0847 
     89 H89       -71.2203   29.1166  -78.1361 H         1 UNK         0.0847 
     90 H90       -72.7259   29.0729  -79.0425 H         1 UNK         0.0847 
     91 H91       -72.7478   26.8508  -75.7200 H         1 UNK         0.3141 
     92 H92       -69.5880   27.1538  -74.0621 H         1 UNK         0.0743 
     93 H93       -71.4281   27.9674  -72.5647 H         1 UNK         0.0784 
     94 H94       -72.4836   26.6909  -73.1667 H         1 UNK         0.0784 
     95 H95       -71.0316   26.2844  -72.2595 H         1 UNK         0.0784 
     96 H96       -71.6675   25.2287  -75.0404 H         1 UNK         0.3213 
     97 H97       -69.2956   23.3215  -76.7717 H         1 UNK         0.0855 
     98 H98       -70.5717   22.4720  -74.1115 H         1 UNK         0.0814 
     99 H99       -68.8607   22.3734  -74.5014 H         1 UNK         0.0814 
    100 H100      -70.0113   21.3849  -75.3839 H         1 UNK         0.0814 
    101 H101      -72.0494   22.8639  -76.0665 H         1 UNK         0.3105 
    102 H102      -73.5346   25.0039  -78.3857 H         1 UNK         0.0547 
    103 H103      -73.2311   21.9861  -78.8311 H         1 UNK         0.0837 
    104 H104      -74.4868   23.0205  -79.5149 H         1 UNK         0.0837 
    105 H105      -72.8147   23.2304  -80.0005 H         1 UNK         0.0837 
    106 H106      -74.8063   22.9339  -77.0761 H         1 UNK         0.3020 
    107 H107      -76.0718   23.2607  -75.3172 H         1 UNK         0.1245 
    108 H108      -74.2204   24.1520  -73.0387 H         1 UNK         0.0781 
    109 H109      -74.2757   22.5593  -73.7423 H         1 UNK         0.0781 
    110 H110      -74.7966   23.9652  -70.6966 H         1 UNK         0.0836 
    111 H111      -76.3675   23.5672  -70.0655 H         1 UNK         0.0836 
    112 H112      -76.2425   25.6217  -73.6866 H         1 UNK         0.3022 
    113 H113      -78.0815   27.0263  -74.1029 H         1 UNK         0.0747 
    114 H114      -77.2290   29.1886  -75.0042 H         1 UNK         0.0793 
    115 H115      -75.8868   28.0926  -74.7253 H         1 UNK         0.0793 
    116 H116      -76.4667   28.3573  -76.3611 H         1 UNK         0.0793 
    117 H117      -78.7962   27.8947  -76.8063 H         1 UNK         0.3047 
    118 H118      -81.0310   27.9957  -77.3019 H         1 UNK         0.0822 
    119 H119      -80.0716   26.0211  -78.5399 H         1 UNK         0.0807 
    120 H120      -81.7966   26.1611  -78.8452 H         1 UNK         0.0807 
    121 H121      -81.1942   24.9450  -77.7191 H         1 UNK         0.0807 
    122 H122      -82.4790   26.3498  -75.4311 H         1 UNK         0.2946 
    123 H123      -85.2739   28.4221  -75.6468 H         1 UNK         0.1144 
    124 H124      -86.1190   26.6187  -77.1628 H         1 UNK         0.0793 
    125 H125      -86.6570   26.3521  -75.5128 H         1 UNK         0.0793 
    126 H126      -85.3310   25.3956  -76.1750 H         1 UNK         0.0793 
    127 H127      -84.5437   26.1831  -73.9604 H         1 UNK         0.2896 
@<TRIPOS>BOND
     1    1    2 1    
     2    1   67 1    
     3    1   68 1    
     4    1   69 1    
     5    2    3 2    
     6    2    4 am   BACKBONE|DICT|INTERRES
     7    4    5 1    
     8    4   70 1    
     9    5    6 1    
    10    5   65 1    
    11    5   71 1    
    12    6    7 1    
    13    6   72 1    
    14    6   73 1    
    15    7    8 1    
    16    8    9 1    
    17    8   74 1    
    18    8   75 1    
    19    9   10 ar   
    20    9   14 ar   
    21   10   11 ar   
    22   10   76 1    
    23   11   12 ar   
    24   11   48 1    
    25   12   13 ar   
    26   12   77 1    
    27   13   14 ar   
    28   13   15 1    
    29   14   78 1    
    30   15   16 1    
    31   15   79 1    
    32   15   80 1    
    33   16   17 1    
    34   17   18 1    
    35   17   81 1    
    36   17   82 1    
    37   18   19 1    
    38   18   22 1    
    39   18   83 1    
    40   19   20 am   BACKBONE|DICT|INTERRES
    41   19   21 2    
    42   20   84 1    
    43   20   85 1    
    44   22   23 am   BACKBONE|DICT|INTERRES
    45   22   86 1    
    46   23   24 2    
    47   23   25 1    
    48   25   26 1    
    49   25   27 1    
    50   25   87 1    
    51   26   88 1    
    52   26   89 1    
    53   26   90 1    
    54   27   28 am   BACKBONE|DICT|INTERRES
    55   27   91 1    
    56   28   29 2    
    57   28   30 1    
    58   30   31 1    
    59   30   32 1    
    60   30   92 1    
    61   31   93 1    
    62   31   94 1    
    63   31   95 1    
    64   32   33 am   BACKBONE|DICT|INTERRES
    65   32   96 1    
    66   33   34 2    
    67   33   35 1    
    68   35   36 1    
    69   35   37 1    
    70   35   97 1    
    71   36   98 1    
    72   36   99 1    
    73   36  100 1    
    74   37   38 am   BACKBONE|DICT|INTERRES
    75   37  101 1    
    76   38   39 2    
    77   38   40 1    
    78   40   41 1    
    79   40   42 1    
    80   40  102 1    
    81   41  103 1    
    82   41  104 1    
    83   41  105 1    
    84   42   43 am   BACKBONE|DICT|INTERRES
    85   42  106 1    
    86   43   44 2    
    87   43   45 1    
    88   45   46 1    
    89   45   49 1    
    90   45  107 1    
    91   46   47 1    
    92   46  108 1    
    93   46  109 1    
    94   47   48 1    
    95   48  110 1    
    96   48  111 1    
    97   49   50 am   BACKBONE|DICT|INTERRES
    98   49  112 1    
    99   50   51 2    
   100   50   52 1    
   101   52   53 1    
   102   52   54 1    
   103   52  113 1    
   104   53  114 1    
   105   53  115 1    
   106   53  116 1    
   107   54   55 am   BACKBONE|DICT|INTERRES
   108   54  117 1    
   109   55   56 2    
   110   55   57 1    
   111   57   58 1    
   112   57   59 1    
   113   57  118 1    
   114   58  119 1    
   115   58  120 1    
   116   58  121 1    
   117   59   60 am   BACKBONE|DICT|INTERRES
   118   59  122 1    
   119   60   61 2    
   120   60   62 1    
   121   62   63 1    
   122   62   64 1    
   123   62  123 1    
   124   63  124 1    
   125   63  125 1    
   126   63  126 1    
   127   64   65 am   BACKBONE|DICT|INTERRES
   128   64  127 1    
   129   65   66 2    
@<TRIPOS>SUBSTRUCTURE
     1 UNK         1 GROUP             0       ****    0 ROOT    
