@<TRIPOS>MOLECULE
3R135
127   129    1
SMALL
USER_CHARGES


@<TRIPOS>ATOM
      1 CA        -83.0356   29.2314  -72.4340 C.3       0 UNK        -0.1998 
      2 C         -81.8929   28.8561  -73.3645 C.2       0 UNK         0.4909 
      3 O         -81.5023   27.6897  -73.4083 O.2       0 UNK        -0.5240 
      4 N         -81.3658   29.8343  -74.1151 N.am      1 UNK        -0.4739 
      5 CA        -80.2358   29.7601  -75.0615 C.3       1 UNK         0.0864 
      6 C6        -78.8998   29.3150  -74.4115 C.3       11 UNK        -0.0881 
      7 S7        -78.2970   30.5222  -73.1853 S.3       11 UNK        -0.2682 
      8 C8        -78.6146   29.6716  -71.6055 C.3       11 UNK         0.0289 
      9 C9        -77.6707   28.5021  -71.3526 C.ar      11 UNK        -0.0687 
     10 C10       -78.1807   27.2282  -71.0866 C.ar      11 UNK        -0.0823 
     11 C11       -77.3225   26.1715  -70.7647 C.ar      11 UNK        -0.0830 
     12 C12       -75.9390   26.3829  -70.7714 C.ar      11 UNK        -0.1021 
     13 C13       -75.4125   27.6522  -71.0433 C.ar      11 UNK        -0.0753 
     14 C14       -76.2891   28.7084  -71.3104 C.ar      11 UNK        -0.0933 
     15 C15       -73.9068   27.8933  -70.9653 C.3       11 UNK         0.0166 
     16 S16       -73.1585   28.3889  -72.5561 S.3       11 UNK        -0.2615 
     17 C17       -73.3789   30.2048  -72.5610 C.3       11 UNK        -0.0865 
     18 CA        -74.2913   30.7032  -73.7148 C.3       10 UNK         0.0862 
     19 C         -74.6121   32.2194  -73.5610 C.2       10 UNK         0.5551 
     20 N         -74.2926   33.0723  -74.5269 N.am      10 UNK        -0.7319 
     21 O         -75.1573   32.6301  -72.5399 O.2       10 UNK        -0.5018 
     22 N         -73.7379   30.3188  -75.0203 N.am      10 UNK        -0.4509 
     23 C         -74.4162   30.1980  -76.1651 C.2       10 UNK         0.4899 
     24 O         -75.6143   30.4531  -76.2804 O.2       10 UNK        -0.4839 
     25 CA        -73.6435   29.6724  -77.3905 C.3       9 UNK         0.0222 
     26 CB        -73.2243   30.8242  -78.3254 C.3       9 UNK        -0.1966 
     27 N         -72.5129   28.7853  -77.0651 N.am      9 UNK        -0.4218 
     28 C         -71.3368   29.0852  -76.4892 C.2       9 UNK         0.5020 
     29 O         -71.0213   30.2287  -76.1584 O.2       9 UNK        -0.5274 
     30 CA        -70.3827   27.9180  -76.1628 C.3       8 UNK         0.0270 
     31 CB        -69.5559   28.1922  -74.8919 C.3       8 UNK        -0.1976 
     32 N         -71.1106   26.6609  -75.9810 N.am      8 UNK        -0.4313 
     33 C         -71.2731   25.7121  -76.9113 C.2       8 UNK         0.5041 
     34 O         -70.7637   25.7532  -78.0313 O.2       8 UNK        -0.5577 
     35 CA        -72.1935   24.5355  -76.5417 C.3       7 UNK         0.0284 
     36 CB        -71.3726   23.3516  -76.0068 C.3       7 UNK        -0.1958 
     37 N         -73.2284   24.8847  -75.5629 N.am      7 UNK        -0.4454 
     38 C         -74.2308   25.7506  -75.7631 C.2       7 UNK         0.5089 
     39 O         -74.3786   26.3864  -76.8078 O.2       7 UNK        -0.5125 
     40 CA        -75.2183   25.9237  -74.5956 C.3       6 UNK         0.0408 
     41 CB        -76.3703   26.8880  -74.9133 C.3       6 UNK        -0.1791 
     42 N         -75.7721   24.6423  -74.1631 N.am      6 UNK        -0.4762 
     43 C         -75.1672   23.7898  -73.3232 C.2       6 UNK         0.5007 
     44 O         -74.0428   23.9832  -72.8576 O.2       6 UNK        -0.5032 
     45 CA        -75.9165   22.4918  -72.9618 C.3       5 UNK         0.0783 
     46 C46       -76.6570   22.6297  -71.6092 C.3       11 UNK        -0.0857 
     47 S47       -78.1590   23.6726  -71.6903 S.3       11 UNK        -0.2512 
     48 C48       -77.9045   24.8365  -70.3166 C.3       11 UNK         0.0225 
     49 N         -76.8123   22.0345  -74.0269 N.am      5 UNK        -0.4615 
     50 C         -76.4267   21.6121  -75.2369 C.2       4 UNK         0.5053 
     51 O         -75.2494   21.4524  -75.5597 O.2       4 UNK        -0.5105 
     52 CA        -77.5351   21.3290  -76.2688 C.3       4 UNK         0.0263 
     53 CB        -77.7485   19.8138  -76.4208 C.3       4 UNK        -0.1981 
     54 N         -78.8281   21.9685  -75.9848 N.am      4 UNK        -0.4224 
     55 C         -79.0468   23.2897  -75.9284 C.2       3 UNK         0.4895 
     56 O         -78.1593   24.1414  -76.0214 O.2       3 UNK        -0.5091 
     57 CA        -80.4973   23.7286  -75.7041 C.3       3 UNK         0.0250 
     58 CB        -80.8560   23.7333  -74.2084 C.3       3 UNK        -0.1996 
     59 N         -80.6700   25.0723  -76.2456 N.am      3 UNK        -0.4254 
     60 C         -81.7797   25.5393  -76.8260 C.2       2 UNK         0.5004 
     61 O         -82.8186   24.8863  -76.9446 O.2       2 UNK        -0.5226 
     62 CA        -81.7147   26.9886  -77.3270 C.3       2 UNK         0.0269 
     63 CB        -83.0515   27.4983  -77.9018 C.3       2 UNK        -0.1926 
     64 N         -81.2880   27.8548  -76.2306 N.am      2 UNK        -0.4687 
     65 C         -80.5312   28.9495  -76.3445 C.2       1 UNK         0.5165 
     66 O         -80.0843   29.3483  -77.4208 O.2       1 UNK        -0.5079 
     67 H67       -83.9287   28.6616  -72.6886 H         1 UNK         0.0900 
     68 H68       -83.2801   30.2918  -72.4937 H         1 UNK         0.0900 
     69 H69       -82.7677   29.0028  -71.4028 H         1 UNK         0.0900 
     70 H70       -81.7690   30.7578  -74.0357 H         1 UNK         0.2959 
     71 H71       -80.0941   30.7854  -75.4084 H         1 UNK         0.1079 
     72 H72       -78.9924   28.3280  -73.9568 H         1 UNK         0.0837 
     73 H73       -78.1196   29.2284  -75.1703 H         1 UNK         0.0837 
     74 H74       -79.6554   29.3497  -71.5722 H         1 UNK         0.0685 
     75 H75       -78.4943   30.3928  -70.7963 H         1 UNK         0.0685 
     76 H76       -79.2506   27.0681  -71.0857 H         1 UNK         0.1434 
     77 H77       -75.2739   25.5664  -70.5257 H         1 UNK         0.1329 
     78 H78       -75.9046   29.7031  -71.4745 H         1 UNK         0.1335 
     79 H79       -73.6943   28.6416  -70.2008 H         1 UNK         0.0680 
     80 H80       -73.4031   26.9831  -70.6364 H         1 UNK         0.0680 
     81 H81       -73.7663   30.5242  -71.5924 H         1 UNK         0.1032 
     82 H82       -72.3917   30.6633  -72.6421 H         1 UNK         0.1032 
     83 H83       -75.2507   30.1926  -73.6233 H         1 UNK         0.0461 
     84 H84       -73.8473   32.7421  -75.3677 H         1 UNK         0.3453 
     85 H85       -74.5057   34.0508  -74.4151 H         1 UNK         0.3453 
     86 H86       -72.7383   30.1598  -75.0535 H         1 UNK         0.2984 
     87 H87       -74.3452   29.0458  -77.9433 H         1 UNK         0.0554 
     88 H88       -72.7232   30.4489  -79.2175 H         1 UNK         0.0847 
     89 H89       -72.5537   31.5298  -77.8347 H         1 UNK         0.0847 
     90 H90       -74.0964   31.3889  -78.6575 H         1 UNK         0.0847 
     91 H91       -72.7080   27.8042  -77.2275 H         1 UNK         0.3141 
     92 H92       -69.6896   27.8299  -77.0019 H         1 UNK         0.0743 
     93 H93       -68.9318   29.0789  -75.0113 H         1 UNK         0.0784 
     94 H94       -70.1942   28.3565  -74.0225 H         1 UNK         0.0784 
     95 H95       -68.8886   27.3603  -74.6659 H         1 UNK         0.0784 
     96 H96       -71.5852   26.5405  -75.0968 H         1 UNK         0.3213 
     97 H97       -72.6988   24.2175  -77.4562 H         1 UNK         0.0855 
     98 H98       -70.6095   23.0494  -76.7256 H         1 UNK         0.0814 
     99 H99       -72.0050   22.4825  -75.8230 H         1 UNK         0.0814 
    100 H100      -70.8633   23.6004  -75.0749 H         1 UNK         0.0814 
    101 H101      -73.2024   24.4105  -74.6656 H         1 UNK         0.3105 
    102 H102      -74.6617   26.3526  -73.7637 H         1 UNK         0.0547 
    103 H103      -76.9577   26.5558  -75.7695 H         1 UNK         0.0837 
    104 H104      -77.0379   26.9851  -74.0577 H         1 UNK         0.0837 
    105 H105      -75.9898   27.8837  -75.1394 H         1 UNK         0.0837 
    106 H106      -76.6647   24.3817  -74.5693 H         1 UNK         0.3020 
    107 H107      -75.1478   21.7249  -72.8398 H         1 UNK         0.1245 
    108 H108      -75.9762   22.9999  -70.8404 H         1 UNK         0.0781 
    109 H109      -76.9665   21.6410  -71.2672 H         1 UNK         0.0781 
    110 H110      -77.2776   24.3878  -69.5449 H         1 UNK         0.0836 
    111 H111      -78.8701   25.0071  -69.8380 H         1 UNK         0.0836 
    112 H112      -77.7992   22.1418  -73.8445 H         1 UNK         0.3022 
    113 H113      -77.1822   21.7211  -77.2251 H         1 UNK         0.0747 
    114 H114      -78.4519   19.5890  -77.2227 H         1 UNK         0.0793 
    115 H115      -76.8124   19.3092  -76.6650 H         1 UNK         0.0793 
    116 H116      -78.1294   19.3659  -75.5020 H         1 UNK         0.0793 
    117 H117      -79.6163   21.3460  -75.8752 H         1 UNK         0.3047 
    118 H118      -81.1491   23.0299  -76.2337 H         1 UNK         0.0822 
    119 H119      -80.6756   22.7601  -73.7503 H         1 UNK         0.0807 
    120 H120      -81.9087   23.9728  -74.0573 H         1 UNK         0.0807 
    121 H121      -80.2693   24.4715  -73.6601 H         1 UNK         0.0807 
    122 H122      -79.8362   25.6457  -76.2204 H         1 UNK         0.2946 
    123 H123      -80.9679   27.0080  -78.1244 H         1 UNK         0.1144 
    124 H124      -83.3885   26.8696  -78.7270 H         1 UNK         0.0793 
    125 H125      -82.9560   28.5131  -78.2882 H         1 UNK         0.0793 
    126 H126      -83.8385   27.4999  -77.1467 H         1 UNK         0.0793 
    127 H127      -81.5584   27.5711  -75.2906 H         1 UNK         0.2896 
@<TRIPOS>BOND
     1    1    2 1    
     2    1   67 1    
     3    1   68 1    
     4    1   69 1    
     5    2    3 2    
     6    2    4 am   BACKBONE|DICT|INTERRES
     7    4    5 1    
     8    4   70 1    
     9    5    6 1    
    10    5   65 1    
    11    5   71 1    
    12    6    7 1    
    13    6   72 1    
    14    6   73 1    
    15    7    8 1    
    16    8    9 1    
    17    8   74 1    
    18    8   75 1    
    19    9   10 ar   
    20    9   14 ar   
    21   10   11 ar   
    22   10   76 1    
    23   11   12 ar   
    24   11   48 1    
    25   12   13 ar   
    26   12   77 1    
    27   13   14 ar   
    28   13   15 1    
    29   14   78 1    
    30   15   16 1    
    31   15   79 1    
    32   15   80 1    
    33   16   17 1    
    34   17   18 1    
    35   17   81 1    
    36   17   82 1    
    37   18   19 1    
    38   18   22 1    
    39   18   83 1    
    40   19   20 am   BACKBONE|DICT|INTERRES
    41   19   21 2    
    42   20   84 1    
    43   20   85 1    
    44   22   23 am   BACKBONE|DICT|INTERRES
    45   22   86 1    
    46   23   24 2    
    47   23   25 1    
    48   25   26 1    
    49   25   27 1    
    50   25   87 1    
    51   26   88 1    
    52   26   89 1    
    53   26   90 1    
    54   27   28 am   BACKBONE|DICT|INTERRES
    55   27   91 1    
    56   28   29 2    
    57   28   30 1    
    58   30   31 1    
    59   30   32 1    
    60   30   92 1    
    61   31   93 1    
    62   31   94 1    
    63   31   95 1    
    64   32   33 am   BACKBONE|DICT|INTERRES
    65   32   96 1    
    66   33   34 2    
    67   33   35 1    
    68   35   36 1    
    69   35   37 1    
    70   35   97 1    
    71   36   98 1    
    72   36   99 1    
    73   36  100 1    
    74   37   38 am   BACKBONE|DICT|INTERRES
    75   37  101 1    
    76   38   39 2    
    77   38   40 1    
    78   40   41 1    
    79   40   42 1    
    80   40  102 1    
    81   41  103 1    
    82   41  104 1    
    83   41  105 1    
    84   42   43 am   BACKBONE|DICT|INTERRES
    85   42  106 1    
    86   43   44 2    
    87   43   45 1    
    88   45   46 1    
    89   45   49 1    
    90   45  107 1    
    91   46   47 1    
    92   46  108 1    
    93   46  109 1    
    94   47   48 1    
    95   48  110 1    
    96   48  111 1    
    97   49   50 am   BACKBONE|DICT|INTERRES
    98   49  112 1    
    99   50   51 2    
   100   50   52 1    
   101   52   53 1    
   102   52   54 1    
   103   52  113 1    
   104   53  114 1    
   105   53  115 1    
   106   53  116 1    
   107   54   55 am   BACKBONE|DICT|INTERRES
   108   54  117 1    
   109   55   56 2    
   110   55   57 1    
   111   57   58 1    
   112   57   59 1    
   113   57  118 1    
   114   58  119 1    
   115   58  120 1    
   116   58  121 1    
   117   59   60 am   BACKBONE|DICT|INTERRES
   118   59  122 1    
   119   60   61 2    
   120   60   62 1    
   121   62   63 1    
   122   62   64 1    
   123   62  123 1    
   124   63  124 1    
   125   63  125 1    
   126   63  126 1    
   127   64   65 am   BACKBONE|DICT|INTERRES
   128   64  127 1    
   129   65   66 2    
@<TRIPOS>SUBSTRUCTURE
     1 UNK         1 GROUP             0       ****    0 ROOT    
