@<TRIPOS>MOLECULE
3R135
127   129    1
SMALL
USER_CHARGES


@<TRIPOS>ATOM
      1 CA        -81.1017   21.9187  -72.8730 C.3       0 UNK        -0.1998 
      2 C         -81.6337   23.2973  -73.2320 C.2       0 UNK         0.4909 
      3 O         -82.2273   23.4687  -74.2972 O.2       0 UNK        -0.5240 
      4 N         -81.4132   24.2862  -72.3572 N.am      1 UNK        -0.4739 
      5 CA        -81.7844   25.6941  -72.5367 C.3       1 UNK         0.0864 
      6 C6        -81.5433   26.5408  -71.2571 C.3       11 UNK        -0.0881 
      7 S7        -80.0001   26.1540  -70.3510 S.3       11 UNK        -0.2682 
      8 C8        -79.4379   27.8010  -69.8248 C.3       11 UNK         0.0289 
      9 C9        -78.3623   28.3539  -70.7469 C.ar      11 UNK        -0.0687 
     10 C10       -78.6873   29.2475  -71.7725 C.ar      11 UNK        -0.0823 
     11 C11       -77.6841   29.8063  -72.5734 C.ar      11 UNK        -0.0830 
     12 C12       -76.3498   29.4536  -72.3441 C.ar      11 UNK        -0.1021 
     13 C13       -76.0168   28.5464  -71.3345 C.ar      11 UNK        -0.0753 
     14 C14       -77.0264   27.9998  -70.5396 C.ar      11 UNK        -0.0933 
     15 C15       -74.5637   28.1790  -71.0902 C.3       11 UNK         0.0166 
     16 S16       -73.7221   29.5030  -70.1677 S.3       11 UNK        -0.2615 
     17 C17       -72.0884   29.5771  -70.9794 C.3       11 UNK        -0.0865 
     18 CA        -71.9602   30.7626  -71.9823 C.3       10 UNK         0.0862 
     19 C         -71.6658   32.1385  -71.3085 C.2       10 UNK         0.5551 
     20 N         -70.9330   33.0402  -71.9531 N.am      10 UNK        -0.7319 
     21 O         -72.1043   32.4066  -70.1934 O.2       10 UNK        -0.5018 
     22 N         -70.9913   30.4547  -73.0467 N.am      10 UNK        -0.4509 
     23 C         -71.1855   29.8066  -74.2012 C.2       10 UNK         0.4899 
     24 O         -70.2610   29.6386  -74.9975 O.2       10 UNK        -0.4839 
     25 CA        -72.5887   29.2849  -74.5808 C.3       9 UNK         0.0222 
     26 CB        -73.3139   30.3178  -75.4574 C.3       9 UNK        -0.1966 
     27 N         -72.4836   28.0058  -75.2922 N.am      9 UNK        -0.4218 
     28 C         -72.1158   26.8634  -74.6965 C.2       9 UNK         0.5020 
     29 O         -72.0829   26.7170  -73.4725 O.2       9 UNK        -0.5274 
     30 CA        -71.6654   25.7168  -75.6130 C.3       8 UNK         0.0270 
     31 CB        -70.9030   24.6174  -74.8383 C.3       8 UNK        -0.1976 
     32 N         -72.7950   25.1317  -76.3348 N.am      8 UNK        -0.4313 
     33 C         -72.6602   24.3884  -77.4425 C.2       8 UNK         0.5041 
     34 O         -71.5865   24.2146  -78.0226 O.2       8 UNK        -0.5577 
     35 CA        -73.9164   23.6955  -77.9927 C.3       7 UNK         0.0284 
     36 CB        -74.3478   22.5369  -77.0783 C.3       7 UNK        -0.1958 
     37 N         -75.0326   24.6155  -78.2025 N.am      7 UNK        -0.4454 
     38 C         -75.0672   25.5595  -79.1535 C.2       7 UNK         0.5089 
     39 O         -74.1715   25.7373  -79.9800 O.2       7 UNK        -0.5125 
     40 CA        -76.3123   26.4628  -79.1941 C.3       6 UNK         0.0408 
     41 CB        -77.4384   25.7947  -79.9981 C.3       6 UNK        -0.1791 
     42 N         -76.8054   26.8240  -77.8635 N.am      6 UNK        -0.4762 
     43 C         -76.1198   27.5543  -76.9713 C.2       6 UNK         0.5007 
     44 O         -75.0089   28.0336  -77.1968 O.2       6 UNK        -0.5032 
     45 CA        -76.7693   27.7383  -75.5837 C.3       5 UNK         0.0783 
     46 C46       -77.9044   28.7959  -75.6193 C.3       11 UNK        -0.0857 
     47 S47       -77.2847   30.4729  -75.2755 S.3       11 UNK        -0.2512 
     48 C48       -78.0479   30.8211  -73.6543 C.3       11 UNK         0.0225 
     49 N         -77.2388   26.4683  -75.0270 N.am      5 UNK        -0.4615 
     50 C         -76.4791   25.3912  -74.7869 C.2       4 UNK         0.5053 
     51 O         -75.2585   25.3557  -74.9405 O.2       4 UNK        -0.5105 
     52 CA        -77.2262   24.1143  -74.3716 C.3       4 UNK         0.0263 
     53 CB        -77.5285   24.1138  -72.8643 C.3       4 UNK        -0.1981 
     54 N         -78.4647   23.9497  -75.1385 N.am      4 UNK        -0.4224 
     55 C         -78.5014   23.6556  -76.4478 C.2       3 UNK         0.4895 
     56 O         -77.5005   23.4133  -77.1200 O.2       3 UNK        -0.5091 
     57 CA        -79.8738   23.6827  -77.1395 C.3       3 UNK         0.0250 
     58 CB        -80.5699   22.3173  -77.0316 C.3       3 UNK        -0.1996 
     59 N         -80.7419   24.7395  -76.6132 N.am      3 UNK        -0.4254 
     60 C         -80.5384   26.0463  -76.8452 C.2       2 UNK         0.5004 
     61 O         -79.6362   26.4751  -77.5628 O.2       2 UNK        -0.5226 
     62 CA        -81.4556   27.0530  -76.1275 C.3       2 UNK         0.0269 
     63 CB        -82.6694   27.3940  -77.0056 C.3       2 UNK        -0.1926 
     64 N         -81.9161   26.5973  -74.8129 N.am      2 UNK        -0.4687 
     65 C         -81.1095   26.2939  -73.7864 C.2       1 UNK         0.5165 
     66 O         -79.8844   26.4104  -73.8313 O.2       1 UNK        -0.5079 
     67 H67       -80.2923   21.6399  -73.5468 H         1 UNK         0.0900 
     68 H68       -80.7210   21.8835  -71.8524 H         1 UNK         0.0900 
     69 H69       -81.8935   21.1757  -72.9640 H         1 UNK         0.0900 
     70 H70       -80.8902   24.1001  -71.5123 H         1 UNK         0.2959 
     71 H71       -82.8615   25.7046  -72.7180 H         1 UNK         0.1079 
     72 H72       -81.5872   27.6069  -71.4880 H         1 UNK         0.0837 
     73 H73       -82.3643   26.3661  -70.5601 H         1 UNK         0.0837 
     74 H74       -80.2805   28.4901  -69.7531 H         1 UNK         0.0685 
     75 H75       -79.0371   27.7195  -68.8133 H         1 UNK         0.0685 
     76 H76       -79.7208   29.5223  -71.9315 H         1 UNK         0.1434 
     77 H77       -75.5665   29.8924  -72.9467 H         1 UNK         0.1329 
     78 H78       -76.7724   27.3100  -69.7463 H         1 UNK         0.1335 
     79 H79       -74.0787   27.9874  -72.0452 H         1 UNK         0.0680 
     80 H80       -74.4876   27.2489  -70.5249 H         1 UNK         0.0680 
     81 H81       -71.9109   28.6245  -71.4808 H         1 UNK         0.1032 
     82 H82       -71.3160   29.6389  -70.2107 H         1 UNK         0.1032 
     83 H83       -72.9304   30.9215  -72.4538 H         1 UNK         0.0461 
     84 H84       -70.7483   33.9268  -71.5100 H         1 UNK         0.3453 
     85 H85       -70.6030   32.8704  -72.8899 H         1 UNK         0.3453 
     86 H86       -70.0569   30.7844  -72.8498 H         1 UNK         0.2984 
     87 H87       -73.1862   29.1167  -73.6891 H         1 UNK         0.0554 
     88 H88       -73.3625   31.2889  -74.9630 H         1 UNK         0.0847 
     89 H89       -74.3394   30.0156  -75.6604 H         1 UNK         0.0847 
     90 H90       -72.8106   30.4635  -76.4139 H         1 UNK         0.0847 
     91 H91       -72.5236   28.0420  -76.3014 H         1 UNK         0.3141 
     92 H92       -70.9758   26.1557  -76.3376 H         1 UNK         0.0743 
     93 H93       -71.5568   24.0940  -74.1396 H         1 UNK         0.0784 
     94 H94       -70.4699   23.8763  -75.5098 H         1 UNK         0.0784 
     95 H95       -70.0805   25.0431  -74.2618 H         1 UNK         0.0784 
     96 H96       -73.7144   25.2436  -75.9031 H         1 UNK         0.3213 
     97 H97       -73.6553   23.2676  -78.9632 H         1 UNK         0.0855 
     98 H98       -74.6683   22.8899  -76.0983 H         1 UNK         0.0814 
     99 H99       -73.5254   21.8380  -76.9200 H         1 UNK         0.0814 
    100 H100      -75.1713   21.9727  -77.5162 H         1 UNK         0.0814 
    101 H101      -75.8473   24.4907  -77.6100 H         1 UNK         0.3105 
    102 H102      -76.0349   27.3874  -79.7045 H         1 UNK         0.0547 
    103 H103      -78.3011   26.4538  -80.0962 H         1 UNK         0.0837 
    104 H104      -77.7756   24.8704  -79.5284 H         1 UNK         0.0837 
    105 H105      -77.1039   25.5457  -81.0060 H         1 UNK         0.0837 
    106 H106      -77.7485   26.5215  -77.6282 H         1 UNK         0.3020 
    107 H107      -75.9817   28.0791  -74.9079 H         1 UNK         0.1245 
    108 H108      -78.6681   28.5606  -74.8773 H         1 UNK         0.0781 
    109 H109      -78.4321   28.8028  -76.5750 H         1 UNK         0.0781 
    110 H110      -79.1297   30.8737  -73.7866 H         1 UNK         0.0836 
    111 H111      -77.7313   31.8113  -73.3240 H         1 UNK         0.0836 
    112 H112      -78.2253   26.4174  -74.7881 H         1 UNK         0.3022 
    113 H113      -76.5793   23.2611  -74.5853 H         1 UNK         0.0747 
    114 H114      -78.0451   23.2033  -72.5614 H         1 UNK         0.0793 
    115 H115      -76.6054   24.1708  -72.2861 H         1 UNK         0.0793 
    116 H116      -78.1435   24.9636  -72.5681 H         1 UNK         0.0793 
    117 H117      -79.3234   24.2135  -74.6773 H         1 UNK         0.3047 
    118 H118      -79.7036   23.8848  -78.1993 H         1 UNK         0.0822 
    119 H119      -81.5326   22.3209  -77.5430 H         1 UNK         0.0807 
    120 H120      -80.7417   22.0259  -75.9961 H         1 UNK         0.0807 
    121 H121      -79.9623   21.5361  -77.4905 H         1 UNK         0.0807 
    122 H122      -81.4809   24.4562  -75.9772 H         1 UNK         0.2946 
    123 H123      -80.8764   27.9661  -75.9762 H         1 UNK         0.1144 
    124 H124      -83.3059   26.5238  -77.1715 H         1 UNK         0.0793 
    125 H125      -82.3524   27.7574  -77.9843 H         1 UNK         0.0793 
    126 H126      -83.2794   28.1767  -76.5541 H         1 UNK         0.0793 
    127 H127      -82.9090   26.4384  -74.7156 H         1 UNK         0.2896 
@<TRIPOS>BOND
     1    1    2 1    
     2    1   67 1    
     3    1   68 1    
     4    1   69 1    
     5    2    3 2    
     6    2    4 am   BACKBONE|DICT|INTERRES
     7    4    5 1    
     8    4   70 1    
     9    5    6 1    
    10    5   65 1    
    11    5   71 1    
    12    6    7 1    
    13    6   72 1    
    14    6   73 1    
    15    7    8 1    
    16    8    9 1    
    17    8   74 1    
    18    8   75 1    
    19    9   10 ar   
    20    9   14 ar   
    21   10   11 ar   
    22   10   76 1    
    23   11   12 ar   
    24   11   48 1    
    25   12   13 ar   
    26   12   77 1    
    27   13   14 ar   
    28   13   15 1    
    29   14   78 1    
    30   15   16 1    
    31   15   79 1    
    32   15   80 1    
    33   16   17 1    
    34   17   18 1    
    35   17   81 1    
    36   17   82 1    
    37   18   19 1    
    38   18   22 1    
    39   18   83 1    
    40   19   20 am   BACKBONE|DICT|INTERRES
    41   19   21 2    
    42   20   84 1    
    43   20   85 1    
    44   22   23 am   BACKBONE|DICT|INTERRES
    45   22   86 1    
    46   23   24 2    
    47   23   25 1    
    48   25   26 1    
    49   25   27 1    
    50   25   87 1    
    51   26   88 1    
    52   26   89 1    
    53   26   90 1    
    54   27   28 am   BACKBONE|DICT|INTERRES
    55   27   91 1    
    56   28   29 2    
    57   28   30 1    
    58   30   31 1    
    59   30   32 1    
    60   30   92 1    
    61   31   93 1    
    62   31   94 1    
    63   31   95 1    
    64   32   33 am   BACKBONE|DICT|INTERRES
    65   32   96 1    
    66   33   34 2    
    67   33   35 1    
    68   35   36 1    
    69   35   37 1    
    70   35   97 1    
    71   36   98 1    
    72   36   99 1    
    73   36  100 1    
    74   37   38 am   BACKBONE|DICT|INTERRES
    75   37  101 1    
    76   38   39 2    
    77   38   40 1    
    78   40   41 1    
    79   40   42 1    
    80   40  102 1    
    81   41  103 1    
    82   41  104 1    
    83   41  105 1    
    84   42   43 am   BACKBONE|DICT|INTERRES
    85   42  106 1    
    86   43   44 2    
    87   43   45 1    
    88   45   46 1    
    89   45   49 1    
    90   45  107 1    
    91   46   47 1    
    92   46  108 1    
    93   46  109 1    
    94   47   48 1    
    95   48  110 1    
    96   48  111 1    
    97   49   50 am   BACKBONE|DICT|INTERRES
    98   49  112 1    
    99   50   51 2    
   100   50   52 1    
   101   52   53 1    
   102   52   54 1    
   103   52  113 1    
   104   53  114 1    
   105   53  115 1    
   106   53  116 1    
   107   54   55 am   BACKBONE|DICT|INTERRES
   108   54  117 1    
   109   55   56 2    
   110   55   57 1    
   111   57   58 1    
   112   57   59 1    
   113   57  118 1    
   114   58  119 1    
   115   58  120 1    
   116   58  121 1    
   117   59   60 am   BACKBONE|DICT|INTERRES
   118   59  122 1    
   119   60   61 2    
   120   60   62 1    
   121   62   63 1    
   122   62   64 1    
   123   62  123 1    
   124   63  124 1    
   125   63  125 1    
   126   63  126 1    
   127   64   65 am   BACKBONE|DICT|INTERRES
   128   64  127 1    
   129   65   66 2    
@<TRIPOS>SUBSTRUCTURE
     1 UNK         1 GROUP             0       ****    0 ROOT    
