@<TRIPOS>MOLECULE
3R135
127   129    1
SMALL
USER_CHARGES


@<TRIPOS>ATOM
      1 CA        -83.6868   28.9637  -69.7882 C.3       0 UNK        -0.1998 
      2 C         -82.9501   28.3875  -70.9883 C.2       0 UNK         0.4909 
      3 O         -82.9890   28.9750  -72.0703 O.2       0 UNK        -0.5240 
      4 N         -82.2724   27.2482  -70.8026 N.am      1 UNK        -0.4739 
      5 CA        -81.5405   26.5301  -71.8518 C.3       1 UNK         0.0864 
      6 C6        -80.5365   25.5046  -71.2583 C.3       11 UNK        -0.0881 
      7 S7        -79.3317   26.2236  -70.0844 S.3       11 UNK        -0.2682 
      8 C8        -77.7550   26.1376  -70.9996 C.3       11 UNK         0.0289 
      9 C9        -77.4120   27.4681  -71.6532 C.ar      11 UNK        -0.0687 
     10 C10       -78.1012   27.8901  -72.7913 C.ar      11 UNK        -0.0823 
     11 C11       -77.8122   29.1220  -73.3902 C.ar      11 UNK        -0.0830 
     12 C12       -76.7930   29.9159  -72.8557 C.ar      11 UNK        -0.1021 
     13 C13       -76.0866   29.5023  -71.7220 C.ar      11 UNK        -0.0753 
     14 C14       -76.4088   28.2822  -71.1187 C.ar      11 UNK        -0.0933 
     15 C15       -74.9882   30.3818  -71.1413 C.3       11 UNK         0.0166 
     16 S16       -73.3599   29.5951  -71.3232 S.3       11 UNK        -0.2615 
     17 C17       -72.2592   31.0372  -71.5136 C.3       11 UNK        -0.0865 
     18 CA        -72.0729   31.4656  -72.9946 C.3       10 UNK         0.0862 
     19 C         -71.1273   32.6982  -73.0949 C.2       10 UNK         0.5551 
     20 N         -69.9653   32.5972  -73.7287 N.am      10 UNK        -0.7319 
     21 O         -71.4589   33.7671  -72.5879 O.2       10 UNK        -0.5018 
     22 N         -71.7118   30.3259  -73.8554 N.am      10 UNK        -0.4509 
     23 C         -71.8244   30.2871  -75.1869 C.2       10 UNK         0.4899 
     24 O         -72.2048   31.2392  -75.8686 O.2       10 UNK        -0.4839 
     25 CA        -71.4747   28.9610  -75.8858 C.3       9 UNK         0.0222 
     26 CB        -69.9534   28.8095  -76.0801 C.3       9 UNK        -0.1966 
     27 N         -72.0709   27.7694  -75.2638 N.am      9 UNK        -0.4218 
     28 C         -71.7950   27.2014  -74.0792 C.2       9 UNK         0.5020 
     29 O         -70.9536   27.6325  -73.2891 O.2       9 UNK        -0.5274 
     30 CA        -72.5914   25.9379  -73.7061 C.3       8 UNK         0.0270 
     31 CB        -73.9040   26.3050  -72.9947 C.3       8 UNK        -0.1976 
     32 N         -72.8927   25.0786  -74.8521 N.am      8 UNK        -0.4313 
     33 C         -71.9868   24.3769  -75.5479 C.2       8 UNK         0.5041 
     34 O         -70.7786   24.3833  -75.3093 O.2       8 UNK        -0.5577 
     35 CA        -72.5212   23.5173  -76.7029 C.3       7 UNK         0.0284 
     36 CB        -73.1068   22.1966  -76.1752 C.3       7 UNK        -0.1958 
     37 N         -73.5404   24.2342  -77.4689 N.am      7 UNK        -0.4454 
     38 C         -73.2775   25.0551  -78.4944 C.2       7 UNK         0.5089 
     39 O         -72.1503   25.2408  -78.9537 O.2       7 UNK        -0.5125 
     40 CA        -74.4720   25.8017  -79.1169 C.3       6 UNK         0.0408 
     41 CB        -75.0379   25.0099  -80.3061 C.3       6 UNK        -0.1791 
     42 N         -75.5526   26.0773  -78.1668 N.am      6 UNK        -0.4762 
     43 C         -75.4560   26.9078  -77.1170 C.2       6 UNK         0.5007 
     44 O         -74.4398   27.5425  -76.8381 O.2       6 UNK        -0.5032 
     45 CA        -76.6910   27.0111  -76.1987 C.3       5 UNK         0.0783 
     46 C46       -77.6222   28.1282  -76.7302 C.3       11 UNK        -0.0857 
     47 S47       -79.1383   28.3566  -75.7494 S.3       11 UNK        -0.2512 
     48 C48       -78.6355   29.6454  -74.5640 C.3       11 UNK         0.0225 
     49 N         -77.3796   25.7225  -76.0226 N.am      5 UNK        -0.4615 
     50 C         -76.8005   24.5877  -75.5996 C.2       4 UNK         0.5053 
     51 O         -75.6127   24.5135  -75.2866 O.2       4 UNK        -0.5105 
     52 CA        -77.6484   23.3053  -75.5327 C.3       4 UNK         0.0263 
     53 CB        -77.9337   22.9407  -74.0668 C.3       4 UNK        -0.1981 
     54 N         -78.9164   23.3475  -76.2642 N.am      4 UNK        -0.4224 
     55 C         -79.0860   23.5442  -77.5810 C.2       3 UNK         0.4895 
     56 O         -78.1584   23.7325  -78.3693 O.2       3 UNK        -0.5091 
     57 CA        -80.5399   23.5461  -78.1027 C.3       3 UNK         0.0250 
     58 CB        -80.8280   22.2589  -78.8924 C.3       3 UNK        -0.1996 
     59 N         -81.5475   23.6947  -77.0411 N.am      3 UNK        -0.4254 
     60 C         -81.7210   24.8067  -76.3120 C.2       2 UNK         0.5004 
     61 O         -81.1089   25.8510  -76.5339 O.2       2 UNK        -0.5226 
     62 CA        -82.6530   24.7365  -75.0901 C.3       2 UNK         0.0269 
     63 CB        -82.9801   23.2887  -74.6464 C.3       2 UNK        -0.1926 
     64 N         -81.9913   25.4818  -74.0172 N.am      2 UNK        -0.4687 
     65 C         -82.5049   25.8180  -72.8286 C.2       1 UNK         0.5165 
     66 O         -83.6568   25.5453  -72.4790 O.2       1 UNK        -0.5079 
     67 H67       -83.5538   28.3519  -68.8961 H         1 UNK         0.0900 
     68 H68       -83.3207   29.9664  -69.5691 H         1 UNK         0.0900 
     69 H69       -84.7539   29.0284  -69.9991 H         1 UNK         0.0900 
     70 H70       -82.2799   26.8039  -69.8958 H         1 UNK         0.2959 
     71 H71       -80.9869   27.2748  -72.4256 H         1 UNK         0.1079 
     72 H72       -79.9968   24.9939  -72.0564 H         1 UNK         0.0837 
     73 H73       -81.0768   24.7196  -70.7251 H         1 UNK         0.0837 
     74 H74       -76.9694   25.8544  -70.2974 H         1 UNK         0.0685 
     75 H75       -77.7776   25.3476  -71.7508 H         1 UNK         0.0685 
     76 H76       -78.8768   27.2607  -73.1987 H         1 UNK         0.1434 
     77 H77       -76.5619   30.8693  -73.3110 H         1 UNK         0.1329 
     78 H78       -75.8681   27.9654  -70.2373 H         1 UNK         0.1335 
     79 H79       -74.9829   31.3552  -71.6342 H         1 UNK         0.0680 
     80 H80       -75.1834   30.5693  -70.0846 H         1 UNK         0.0680 
     81 H81       -72.6463   31.8640  -70.9146 H         1 UNK         0.1032 
     82 H82       -71.2940   30.7761  -71.0755 H         1 UNK         0.1032 
     83 H83       -73.0448   31.8171  -73.3465 H         1 UNK         0.0461 
     84 H84       -69.6914   31.7235  -74.1481 H         1 UNK         0.3453 
     85 H85       -69.3615   33.4018  -73.7904 H         1 UNK         0.3453 
     86 H86       -71.3996   29.4806  -73.3847 H         1 UNK         0.2984 
     87 H87       -71.9208   29.0098  -76.8806 H         1 UNK         0.0554 
     88 H88       -69.4187   28.7713  -75.1307 H         1 UNK         0.0847 
     89 H89       -69.5489   29.6504  -76.6447 H         1 UNK         0.0847 
     90 H90       -69.7149   27.9019  -76.6348 H         1 UNK         0.0847 
     91 H91       -72.8505   27.3852  -75.7928 H         1 UNK         0.3141 
     92 H92       -71.9818   25.3561  -73.0115 H         1 UNK         0.0743 
     93 H93       -74.5194   26.9762  -73.5947 H         1 UNK         0.0784 
     94 H94       -74.4988   25.4204  -72.7661 H         1 UNK         0.0784 
     95 H95       -73.7025   26.8056  -72.0482 H         1 UNK         0.0784 
     96 H96       -73.8783   24.9565  -75.0805 H         1 UNK         0.3213 
     97 H97       -71.6808   23.2731  -77.3570 H         1 UNK         0.0855 
     98 H98       -73.9523   22.3612  -75.5063 H         1 UNK         0.0814 
     99 H99       -72.3561   21.6350  -75.6175 H         1 UNK         0.0814 
    100 H100      -73.4457   21.5597  -76.9924 H         1 UNK         0.0814 
    101 H101      -74.4894   24.1859  -77.1212 H         1 UNK         0.3105 
    102 H102      -74.1023   26.7594  -79.4896 H         1 UNK         0.0547 
    103 H103      -74.2601   24.7994  -81.0416 H         1 UNK         0.0837 
    104 H104      -75.4577   24.0534  -79.9915 H         1 UNK         0.0837 
    105 H105      -75.8224   25.5678  -80.8176 H         1 UNK         0.0837 
    106 H106      -76.4194   25.5718  -78.3021 H         1 UNK         0.3020 
    107 H107      -76.3281   27.3116  -75.2138 H         1 UNK         0.1245 
    108 H108      -77.9356   27.9048  -77.7521 H         1 UNK         0.0781 
    109 H109      -77.0893   29.0798  -76.7826 H         1 UNK         0.0781 
    110 H110      -79.5381   30.1062  -74.1608 H         1 UNK         0.0836 
    111 H111      -78.1023   30.4356  -75.0948 H         1 UNK         0.0836 
    112 H112      -78.3626   25.7113  -76.2570 H         1 UNK         0.3022 
    113 H113      -77.0465   22.5081  -75.9734 H         1 UNK         0.0747 
    114 H114      -78.4273   21.9720  -73.9861 H         1 UNK         0.0793 
    115 H115      -77.0092   22.8776  -73.4904 H         1 UNK         0.0793 
    116 H116      -78.5683   23.6836  -73.5835 H         1 UNK         0.0793 
    117 H117      -79.7475   23.1923  -75.7146 H         1 UNK         0.3047 
    118 H118      -80.6359   24.3950  -78.7833 H         1 UNK         0.0822 
    119 H119      -81.8246   22.2782  -79.3339 H         1 UNK         0.0807 
    120 H120      -80.7557   21.3721  -78.2615 H         1 UNK         0.0807 
    121 H121      -80.1167   22.1352  -79.7105 H         1 UNK         0.0807 
    122 H122      -82.0848   22.8722  -76.8057 H         1 UNK         0.2946 
    123 H123      -83.5791   25.2514  -75.3544 H         1 UNK         0.1144 
    124 H124      -83.6422   23.2718  -73.7813 H         1 UNK         0.0793 
    125 H125      -82.0809   22.7320  -74.3794 H         1 UNK         0.0793 
    126 H126      -83.4977   22.7369  -75.4320 H         1 UNK         0.0793 
    127 H127      -81.0712   25.8175  -74.2726 H         1 UNK         0.2896 
@<TRIPOS>BOND
     1    1    2 1    
     2    1   67 1    
     3    1   68 1    
     4    1   69 1    
     5    2    3 2    
     6    2    4 am   BACKBONE|DICT|INTERRES
     7    4    5 1    
     8    4   70 1    
     9    5    6 1    
    10    5   65 1    
    11    5   71 1    
    12    6    7 1    
    13    6   72 1    
    14    6   73 1    
    15    7    8 1    
    16    8    9 1    
    17    8   74 1    
    18    8   75 1    
    19    9   10 ar   
    20    9   14 ar   
    21   10   11 ar   
    22   10   76 1    
    23   11   12 ar   
    24   11   48 1    
    25   12   13 ar   
    26   12   77 1    
    27   13   14 ar   
    28   13   15 1    
    29   14   78 1    
    30   15   16 1    
    31   15   79 1    
    32   15   80 1    
    33   16   17 1    
    34   17   18 1    
    35   17   81 1    
    36   17   82 1    
    37   18   19 1    
    38   18   22 1    
    39   18   83 1    
    40   19   20 am   BACKBONE|DICT|INTERRES
    41   19   21 2    
    42   20   84 1    
    43   20   85 1    
    44   22   23 am   BACKBONE|DICT|INTERRES
    45   22   86 1    
    46   23   24 2    
    47   23   25 1    
    48   25   26 1    
    49   25   27 1    
    50   25   87 1    
    51   26   88 1    
    52   26   89 1    
    53   26   90 1    
    54   27   28 am   BACKBONE|DICT|INTERRES
    55   27   91 1    
    56   28   29 2    
    57   28   30 1    
    58   30   31 1    
    59   30   32 1    
    60   30   92 1    
    61   31   93 1    
    62   31   94 1    
    63   31   95 1    
    64   32   33 am   BACKBONE|DICT|INTERRES
    65   32   96 1    
    66   33   34 2    
    67   33   35 1    
    68   35   36 1    
    69   35   37 1    
    70   35   97 1    
    71   36   98 1    
    72   36   99 1    
    73   36  100 1    
    74   37   38 am   BACKBONE|DICT|INTERRES
    75   37  101 1    
    76   38   39 2    
    77   38   40 1    
    78   40   41 1    
    79   40   42 1    
    80   40  102 1    
    81   41  103 1    
    82   41  104 1    
    83   41  105 1    
    84   42   43 am   BACKBONE|DICT|INTERRES
    85   42  106 1    
    86   43   44 2    
    87   43   45 1    
    88   45   46 1    
    89   45   49 1    
    90   45  107 1    
    91   46   47 1    
    92   46  108 1    
    93   46  109 1    
    94   47   48 1    
    95   48  110 1    
    96   48  111 1    
    97   49   50 am   BACKBONE|DICT|INTERRES
    98   49  112 1    
    99   50   51 2    
   100   50   52 1    
   101   52   53 1    
   102   52   54 1    
   103   52  113 1    
   104   53  114 1    
   105   53  115 1    
   106   53  116 1    
   107   54   55 am   BACKBONE|DICT|INTERRES
   108   54  117 1    
   109   55   56 2    
   110   55   57 1    
   111   57   58 1    
   112   57   59 1    
   113   57  118 1    
   114   58  119 1    
   115   58  120 1    
   116   58  121 1    
   117   59   60 am   BACKBONE|DICT|INTERRES
   118   59  122 1    
   119   60   61 2    
   120   60   62 1    
   121   62   63 1    
   122   62   64 1    
   123   62  123 1    
   124   63  124 1    
   125   63  125 1    
   126   63  126 1    
   127   64   65 am   BACKBONE|DICT|INTERRES
   128   64  127 1    
   129   65   66 2    
@<TRIPOS>SUBSTRUCTURE
     1 UNK         1 GROUP             0       ****    0 ROOT    
