@<TRIPOS>MOLECULE
3R135
127   129    1
SMALL
USER_CHARGES


@<TRIPOS>ATOM
      1 CA        -81.9733   28.0597  -70.0334 C.3       0 UNK        -0.1998 
      2 C         -82.7425   27.6917  -71.2933 C.2       0 UNK         0.4909 
      3 O         -83.8030   27.0725  -71.2065 O.2       0 UNK        -0.5240 
      4 N         -82.2139   28.0668  -72.4654 N.am      1 UNK        -0.4739 
      5 CA        -82.7955   27.7794  -73.7838 C.3       1 UNK         0.0864 
      6 C6        -82.2869   28.7773  -74.8584 C.3       11 UNK        -0.0881 
      7 S7        -80.4907   28.6773  -75.1759 S.3       11 UNK        -0.2682 
      8 C8        -79.8380   30.0457  -74.1731 C.3       11 UNK         0.0289 
      9 C9        -78.4347   29.7115  -73.6971 C.ar      11 UNK        -0.0687 
     10 C10       -78.2576   28.9077  -72.5668 C.ar      11 UNK        -0.0823 
     11 C11       -76.9757   28.5544  -72.1398 C.ar      11 UNK        -0.0830 
     12 C12       -75.8673   29.0218  -72.8490 C.ar      11 UNK        -0.1021 
     13 C13       -76.0285   29.8178  -73.9851 C.ar      11 UNK        -0.0753 
     14 C14       -77.3164   30.1699  -74.4004 C.ar      11 UNK        -0.0933 
     15 C15       -74.8136   30.2368  -74.7976 C.3       11 UNK         0.0166 
     16 S16       -74.1857   31.8840  -74.3500 S.3       11 UNK        -0.2615 
     17 C17       -73.5201   31.6586  -72.6640 C.3       11 UNK        -0.0865 
     18 CA        -72.0732   31.0849  -72.6542 C.3       10 UNK         0.0862 
     19 C         -71.2565   31.5806  -71.4224 C.2       10 UNK         0.5551 
     20 N         -70.6148   30.7119  -70.6491 N.am      10 UNK        -0.7319 
     21 O         -71.1849   32.7814  -71.1724 O.2       10 UNK        -0.5018 
     22 N         -72.0811   29.6154  -72.7792 N.am      10 UNK        -0.4509 
     23 C         -71.3428   28.9011  -73.6374 C.2       10 UNK         0.4899 
     24 O         -70.6160   29.4030  -74.4956 O.2       10 UNK        -0.4839 
     25 CA        -71.3965   27.3669  -73.5059 C.3       9 UNK         0.0222 
     26 CB        -72.3189   26.8453  -72.3860 C.3       9 UNK        -0.1966 
     27 N         -71.8118   26.7716  -74.7754 N.am      9 UNK        -0.4218 
     28 C         -70.9795   26.2178  -75.6675 C.2       9 UNK         0.5020 
     29 O         -69.7608   26.1209  -75.5110 O.2       9 UNK        -0.5274 
     30 CA        -71.6094   25.6532  -76.9508 C.3       8 UNK         0.0270 
     31 CB        -72.1684   24.2429  -76.7010 C.3       8 UNK        -0.1976 
     32 N         -72.6693   26.4979  -77.4986 N.am      8 UNK        -0.4313 
     33 C         -72.5093   27.7083  -78.0448 C.2       8 UNK         0.5041 
     34 O         -71.4162   28.2647  -78.1538 O.2       8 UNK        -0.5577 
     35 CA        -73.7660   28.4298  -78.5777 C.3       7 UNK         0.0284 
     36 CB        -73.9609   28.1469  -80.0803 C.3       7 UNK        -0.1958 
     37 N         -75.0097   28.1849  -77.8277 N.am      7 UNK        -0.4454 
     38 C         -75.6794   27.0375  -77.6551 C.2       7 UNK         0.5089 
     39 O         -75.3428   25.9579  -78.1454 O.2       7 UNK        -0.5125 
     40 CA        -76.9167   27.1052  -76.7465 C.3       6 UNK         0.0408 
     41 CB        -78.1858   26.8530  -77.5756 C.3       6 UNK        -0.1791 
     42 N         -76.8702   26.1431  -75.6422 N.am      6 UNK        -0.4762 
     43 C         -75.8515   25.9260  -74.7922 C.2       6 UNK         0.5007 
     44 O         -74.7693   26.5177  -74.8331 O.2       6 UNK        -0.5032 
     45 CA        -76.0720   24.8200  -73.7422 C.3       5 UNK         0.0783 
     46 C46       -76.8918   25.3121  -72.5206 C.3       11 UNK        -0.0857 
     47 S47       -75.8490   26.1456  -71.2780 S.3       11 UNK        -0.2512 
     48 C48       -76.7931   27.6636  -70.9177 C.3       11 UNK         0.0225 
     49 N         -76.7094   23.6589  -74.3665 N.am      5 UNK        -0.4615 
     50 C         -76.0532   22.6099  -74.8795 C.2       4 UNK         0.5053 
     51 O         -74.8293   22.4859  -74.8429 O.2       4 UNK        -0.5105 
     52 CA        -76.8945   21.4902  -75.5216 C.3       4 UNK         0.0263 
     53 CB        -77.0685   20.3225  -74.5366 C.3       4 UNK        -0.1981 
     54 N         -78.2158   21.9413  -75.9637 N.am      4 UNK        -0.4224 
     55 C         -78.4406   22.6742  -77.0632 C.2       3 UNK         0.4895 
     56 O         -77.5681   22.9706  -77.8782 O.2       3 UNK        -0.5091 
     57 CA        -79.8805   23.1735  -77.2900 C.3       3 UNK         0.0250 
     58 CB        -80.6220   22.2436  -78.2642 C.3       3 UNK        -0.1996 
     59 N         -80.6784   23.3261  -76.0659 N.am      3 UNK        -0.4254 
     60 C         -80.3822   24.1490  -75.0508 C.2       2 UNK         0.5004 
     61 O         -79.3497   24.8204  -74.9893 O.2       2 UNK        -0.5226 
     62 CA        -81.3689   24.1847  -73.8771 C.3       2 UNK         0.0269 
     63 CB        -80.7517   23.5174  -72.6368 C.3       2 UNK        -0.1926 
     64 N         -81.7168   25.5665  -73.5545 N.am      2 UNK        -0.4687 
     65 C         -82.6165   26.3049  -74.2209 C.2       1 UNK         0.5165 
     66 O         -83.3010   25.8634  -75.1458 O.2       1 UNK        -0.5079 
     67 H67       -81.6531   27.1576  -69.5127 H         1 UNK         0.0900 
     68 H68       -82.6098   28.6334  -69.3602 H         1 UNK         0.0900 
     69 H69       -81.0892   28.6579  -70.2527 H         1 UNK         0.0900 
     70 H70       -81.3431   28.5746  -72.4831 H         1 UNK         0.2959 
     71 H71       -83.8746   27.9289  -73.7001 H         1 UNK         0.1079 
     72 H72       -82.8041   28.6023  -75.8037 H         1 UNK         0.0837 
     73 H73       -82.5487   29.7977  -74.5738 H         1 UNK         0.0837 
     74 H74       -79.8403   30.9615  -74.7660 H         1 UNK         0.0685 
     75 H75       -80.4810   30.2338  -73.3126 H         1 UNK         0.0685 
     76 H76       -79.1200   28.5420  -72.0290 H         1 UNK         0.1434 
     77 H77       -74.8763   28.7398  -72.5306 H         1 UNK         0.1329 
     78 H78       -77.4490   30.7768  -75.2855 H         1 UNK         0.1335 
     79 H79       -74.0213   29.4936  -74.7118 H         1 UNK         0.0680 
     80 H80       -75.0805   30.2610  -75.8537 H         1 UNK         0.0680 
     81 H81       -74.1948   31.0552  -72.0574 H         1 UNK         0.1032 
     82 H82       -73.5498   32.6516  -72.2117 H         1 UNK         0.1032 
     83 H83       -71.5452   31.5143  -73.5075 H         1 UNK         0.0461 
     84 H84       -70.0854   31.0527  -69.8618 H         1 UNK         0.3453 
     85 H85       -70.6320   29.7269  -70.8552 H         1 UNK         0.3453 
     86 H86       -72.6229   29.1205  -72.0870 H         1 UNK         0.2984 
     87 H87       -70.3829   27.0480  -73.2552 H         1 UNK         0.0554 
     88 H88       -72.2581   25.7594  -72.3102 H         1 UNK         0.0847 
     89 H89       -73.3620   27.0932  -72.5715 H         1 UNK         0.0847 
     90 H90       -72.0395   27.2428  -71.4097 H         1 UNK         0.0847 
     91 H91       -72.8074   26.7947  -74.9824 H         1 UNK         0.3141 
     92 H92       -70.8211   25.5801  -77.7030 H         1 UNK         0.0743 
     93 H93       -72.9885   24.2568  -75.9815 H         1 UNK         0.0784 
     94 H94       -72.5408   23.7938  -77.6220 H         1 UNK         0.0784 
     95 H95       -71.3978   23.5801  -76.3052 H         1 UNK         0.0784 
     96 H96       -73.6110   26.1118  -77.5127 H         1 UNK         0.3213 
     97 H97       -73.5685   29.4979  -78.4708 H         1 UNK         0.0855 
     98 H98       -73.0707   28.4244  -80.6464 H         1 UNK         0.0814 
     99 H99       -74.7944   28.7191  -80.4874 H         1 UNK         0.0814 
    100 H100      -74.1509   27.0911  -80.2759 H         1 UNK         0.0814 
    101 H101      -75.3790   28.9986  -77.3579 H         1 UNK         0.3105 
    102 H102      -76.9871   28.0980  -76.3014 H         1 UNK         0.0547 
    103 H103      -78.3177   27.6261  -78.3332 H         1 UNK         0.0837 
    104 H104      -78.1394   25.8936  -78.0923 H         1 UNK         0.0837 
    105 H105      -79.0799   26.8501  -76.9536 H         1 UNK         0.0837 
    106 H106      -77.7259   25.6149  -75.4910 H         1 UNK         0.3020 
    107 H107      -75.0830   24.5198  -73.3869 H         1 UNK         0.1245 
    108 H108      -77.3446   24.4607  -72.0102 H         1 UNK         0.0781 
    109 H109      -77.7266   25.9460  -72.8260 H         1 UNK         0.0781 
    110 H110      -76.2684   28.2286  -70.1462 H         1 UNK         0.0836 
    111 H111      -77.7566   27.3829  -70.4896 H         1 UNK         0.0836 
    112 H112      -77.7118   23.7252  -74.4974 H         1 UNK         0.3022 
    113 H113      -76.3439   21.1240  -76.3910 H         1 UNK         0.0747 
    114 H114      -77.6032   19.4912  -74.9964 H         1 UNK         0.0793 
    115 H115      -76.1000   19.9408  -74.2097 H         1 UNK         0.0793 
    116 H116      -77.6174   20.6243  -73.6435 H         1 UNK         0.0793 
    117 H117      -78.9989   21.7232  -75.3653 H         1 UNK         0.3047 
    118 H118      -79.8082   24.1597  -77.7522 H         1 UNK         0.0822 
    119 H119      -81.6052   22.6386  -78.5209 H         1 UNK         0.0807 
    120 H120      -80.7580   21.2454  -77.8461 H         1 UNK         0.0807 
    121 H121      -80.0673   22.1330  -79.1973 H         1 UNK         0.0807 
    122 H122      -81.5399   22.7998  -76.0281 H         1 UNK         0.2946 
    123 H123      -82.2785   23.6427  -74.1469 H         1 UNK         0.1144 
    124 H124      -80.4885   22.4786  -72.8403 H         1 UNK         0.0793 
    125 H125      -81.4509   23.5152  -71.8004 H         1 UNK         0.0793 
    126 H126      -79.8439   24.0267  -72.3113 H         1 UNK         0.0793 
    127 H127      -81.1672   26.0203  -72.8409 H         1 UNK         0.2896 
@<TRIPOS>BOND
     1    1    2 1    
     2    1   67 1    
     3    1   68 1    
     4    1   69 1    
     5    2    3 2    
     6    2    4 am   BACKBONE|DICT|INTERRES
     7    4    5 1    
     8    4   70 1    
     9    5    6 1    
    10    5   65 1    
    11    5   71 1    
    12    6    7 1    
    13    6   72 1    
    14    6   73 1    
    15    7    8 1    
    16    8    9 1    
    17    8   74 1    
    18    8   75 1    
    19    9   10 ar   
    20    9   14 ar   
    21   10   11 ar   
    22   10   76 1    
    23   11   12 ar   
    24   11   48 1    
    25   12   13 ar   
    26   12   77 1    
    27   13   14 ar   
    28   13   15 1    
    29   14   78 1    
    30   15   16 1    
    31   15   79 1    
    32   15   80 1    
    33   16   17 1    
    34   17   18 1    
    35   17   81 1    
    36   17   82 1    
    37   18   19 1    
    38   18   22 1    
    39   18   83 1    
    40   19   20 am   BACKBONE|DICT|INTERRES
    41   19   21 2    
    42   20   84 1    
    43   20   85 1    
    44   22   23 am   BACKBONE|DICT|INTERRES
    45   22   86 1    
    46   23   24 2    
    47   23   25 1    
    48   25   26 1    
    49   25   27 1    
    50   25   87 1    
    51   26   88 1    
    52   26   89 1    
    53   26   90 1    
    54   27   28 am   BACKBONE|DICT|INTERRES
    55   27   91 1    
    56   28   29 2    
    57   28   30 1    
    58   30   31 1    
    59   30   32 1    
    60   30   92 1    
    61   31   93 1    
    62   31   94 1    
    63   31   95 1    
    64   32   33 am   BACKBONE|DICT|INTERRES
    65   32   96 1    
    66   33   34 2    
    67   33   35 1    
    68   35   36 1    
    69   35   37 1    
    70   35   97 1    
    71   36   98 1    
    72   36   99 1    
    73   36  100 1    
    74   37   38 am   BACKBONE|DICT|INTERRES
    75   37  101 1    
    76   38   39 2    
    77   38   40 1    
    78   40   41 1    
    79   40   42 1    
    80   40  102 1    
    81   41  103 1    
    82   41  104 1    
    83   41  105 1    
    84   42   43 am   BACKBONE|DICT|INTERRES
    85   42  106 1    
    86   43   44 2    
    87   43   45 1    
    88   45   46 1    
    89   45   49 1    
    90   45  107 1    
    91   46   47 1    
    92   46  108 1    
    93   46  109 1    
    94   47   48 1    
    95   48  110 1    
    96   48  111 1    
    97   49   50 am   BACKBONE|DICT|INTERRES
    98   49  112 1    
    99   50   51 2    
   100   50   52 1    
   101   52   53 1    
   102   52   54 1    
   103   52  113 1    
   104   53  114 1    
   105   53  115 1    
   106   53  116 1    
   107   54   55 am   BACKBONE|DICT|INTERRES
   108   54  117 1    
   109   55   56 2    
   110   55   57 1    
   111   57   58 1    
   112   57   59 1    
   113   57  118 1    
   114   58  119 1    
   115   58  120 1    
   116   58  121 1    
   117   59   60 am   BACKBONE|DICT|INTERRES
   118   59  122 1    
   119   60   61 2    
   120   60   62 1    
   121   62   63 1    
   122   62   64 1    
   123   62  123 1    
   124   63  124 1    
   125   63  125 1    
   126   63  126 1    
   127   64   65 am   BACKBONE|DICT|INTERRES
   128   64  127 1    
   129   65   66 2    
@<TRIPOS>SUBSTRUCTURE
     1 UNK         1 GROUP             0       ****    0 ROOT    
