@<TRIPOS>MOLECULE
3R135
127   129    1
SMALL
USER_CHARGES


@<TRIPOS>ATOM
      1 CA        -84.8921   26.2569  -72.2331 C.3       0 UNK        -0.1998 
      2 C         -83.4988   26.4670  -72.8056 C.2       0 UNK         0.4909 
      3 O         -83.3516   27.1117  -73.8453 O.2       0 UNK        -0.5240 
      4 N         -82.4699   25.9264  -72.1406 N.am      1 UNK        -0.4739 
      5 CA        -81.0633   26.0195  -72.5456 C.3       1 UNK         0.0864 
      6 C6        -80.0948   25.9136  -71.3354 C.3       11 UNK        -0.0881 
      7 S7        -80.4367   27.1385  -70.0207 S.3       11 UNK        -0.2682 
      8 C8        -78.8423   28.0280  -69.8678 C.3       11 UNK         0.0289 
      9 C9        -78.5150   29.0439  -70.9669 C.ar      11 UNK        -0.0687 
     10 C10       -79.3742   29.3056  -72.0416 C.ar      11 UNK        -0.0823 
     11 C11       -79.0087   30.1956  -73.0521 C.ar      11 UNK        -0.0830 
     12 C12       -77.8096   30.9009  -72.9448 C.ar      11 UNK        -0.1021 
     13 C13       -76.9468   30.6705  -71.8728 C.ar      11 UNK        -0.0753 
     14 C14       -77.2989   29.7348  -70.8942 C.ar      11 UNK        -0.0933 
     15 C15       -75.6302   31.4270  -71.7999 C.3       11 UNK         0.0166 
     16 S16       -74.4778   30.8633  -73.0907 S.3       11 UNK        -0.2615 
     17 C17       -73.9469   29.2536  -72.4175 C.3       11 UNK        -0.0865 
     18 CA        -72.4439   29.0031  -72.6854 C.3       10 UNK         0.0862 
     19 C         -71.9279   27.7905  -71.8672 C.2       10 UNK         0.5551 
     20 N         -71.3020   28.0357  -70.7242 N.am      10 UNK        -0.7319 
     21 O         -72.1287   26.6354  -72.2332 O.2       10 UNK        -0.5018 
     22 N         -72.1881   28.8296  -74.1203 N.am      10 UNK        -0.4509 
     23 C         -70.9998   29.0133  -74.7091 C.2       10 UNK         0.4899 
     24 O         -70.0049   29.4482  -74.1261 O.2       10 UNK        -0.4839 
     25 CA        -70.9220   28.6380  -76.2029 C.3       9 UNK         0.0222 
     26 CB        -69.4852   28.6600  -76.7667 C.3       9 UNK        -0.1966 
     27 N         -71.5823   27.3568  -76.4783 N.am      9 UNK        -0.4218 
     28 C         -71.2819   26.1584  -75.9505 C.2       9 UNK         0.5020 
     29 O         -70.2760   25.9408  -75.2735 O.2       9 UNK        -0.5274 
     30 CA        -72.2774   25.0076  -76.1830 C.3       8 UNK         0.0270 
     31 CB        -72.8368   24.5153  -74.8369 C.3       8 UNK        -0.1976 
     32 N         -73.3958   25.3970  -77.0479 N.am      8 UNK        -0.4313 
     33 C         -73.4555   25.1642  -78.3668 C.2       8 UNK         0.5041 
     34 O         -72.6040   24.5270  -78.9882 O.2       8 UNK        -0.5577 
     35 CA        -74.6443   25.7694  -79.1412 C.3       7 UNK         0.0284 
     36 CB        -75.7999   24.7598  -79.2309 C.3       7 UNK        -0.1958 
     37 N         -75.1496   27.0237  -78.5755 N.am      7 UNK        -0.4454 
     38 C         -74.4418   28.1515  -78.4184 C.2       7 UNK         0.5089 
     39 O         -73.2788   28.2865  -78.7952 O.2       7 UNK        -0.5125 
     40 CA        -75.1158   29.3021  -77.6486 C.3       6 UNK         0.0408 
     41 CB        -75.6865   30.3413  -78.6251 C.3       6 UNK        -0.1791 
     42 N         -76.1747   28.8717  -76.7289 N.am      6 UNK        -0.4762 
     43 C         -76.0319   28.0254  -75.7004 C.2       6 UNK         0.5007 
     44 O         -74.9503   27.4907  -75.4327 O.2       6 UNK        -0.5032 
     45 CA        -77.2976   27.7014  -74.8639 C.3       5 UNK         0.0783 
     46 C46       -78.6604   28.0758  -75.5285 C.3       11 UNK        -0.0857 
     47 S47       -78.9833   29.8598  -75.7937 S.3       11 UNK        -0.2512 
     48 C48       -79.8806   30.3565  -74.2862 C.3       11 UNK         0.0225 
     49 N         -77.2774   26.2759  -74.5159 N.am      5 UNK        -0.4615 
     50 C         -76.6582   25.7516  -73.4473 C.2       4 UNK         0.5053 
     51 O         -76.1810   26.4351  -72.5424 O.2       4 UNK        -0.5105 
     52 CA        -76.5441   24.2159  -73.3543 C.3       4 UNK         0.0263 
     53 CB        -76.9171   23.6958  -71.9541 C.3       4 UNK        -0.1981 
     54 N         -77.3588   23.5185  -74.3522 N.am      4 UNK        -0.4224 
     55 C         -76.9110   23.0548  -75.5285 C.2       3 UNK         0.4895 
     56 O         -75.7432   23.1434  -75.8994 O.2       3 UNK        -0.5091 
     57 CA        -77.9320   22.3929  -76.4738 C.3       3 UNK         0.0250 
     58 CB        -77.8746   20.8632  -76.3364 C.3       3 UNK        -0.1996 
     59 N         -79.3120   22.8420  -76.2766 N.am      3 UNK        -0.4254 
     60 C         -79.7390   24.1035  -76.4205 C.2       2 UNK         0.5004 
     61 O         -79.0085   25.0328  -76.7664 O.2       2 UNK        -0.5226 
     62 CA        -81.2069   24.3972  -76.0578 C.3       2 UNK         0.0269 
     63 CB        -82.0885   23.1354  -75.9156 C.3       2 UNK        -0.1926 
     64 N         -81.3111   25.2194  -74.8462 N.am      2 UNK        -0.4687 
     65 C         -80.7600   24.9824  -73.6455 C.2       1 UNK         0.5165 
     66 O         -80.0694   23.9938  -73.3898 O.2       1 UNK        -0.5079 
     67 H67       -84.8704   25.6767  -71.3108 H         1 UNK         0.0900 
     68 H68       -85.5171   25.7284  -72.9525 H         1 UNK         0.0900 
     69 H69       -85.3574   27.2184  -72.0181 H         1 UNK         0.0900 
     70 H70       -82.6444   25.3990  -71.2968 H         1 UNK         0.2959 
     71 H71       -80.9043   26.9897  -73.0129 H         1 UNK         0.1079 
     72 H72       -80.1495   24.9209  -70.8846 H         1 UNK         0.0837 
     73 H73       -79.0650   26.0393  -71.6728 H         1 UNK         0.0837 
     74 H74       -78.8486   28.5537  -68.9120 H         1 UNK         0.0685 
     75 H75       -78.0363   27.2947  -69.8081 H         1 UNK         0.0685 
     76 H76       -80.3297   28.8149  -72.1098 H         1 UNK         0.1434 
     77 H77       -77.5253   31.5990  -73.7208 H         1 UNK         0.1329 
     78 H78       -76.6243   29.5429  -70.0710 H         1 UNK         0.1335 
     79 H79       -75.1689   31.3290  -70.8160 H         1 UNK         0.0680 
     80 H80       -75.8224   32.4915  -71.9419 H         1 UNK         0.0680 
     81 H81       -74.5583   28.4639  -72.8560 H         1 UNK         0.1032 
     82 H82       -74.1509   29.2318  -71.3455 H         1 UNK         0.1032 
     83 H83       -71.8965   29.8874  -72.3510 H         1 UNK         0.0461 
     84 H84       -70.9740   27.2598  -70.1706 H         1 UNK         0.3453 
     85 H85       -71.1383   28.9797  -70.4103 H         1 UNK         0.3453 
     86 H86       -72.9477   28.4282  -74.6544 H         1 UNK         0.2984 
     87 H87       -71.4956   29.3963  -76.7381 H         1 UNK         0.0554 
     88 H88       -69.4712   28.4012  -77.8253 H         1 UNK         0.0847 
     89 H89       -68.8303   27.9640  -76.2419 H         1 UNK         0.0847 
     90 H90       -69.0448   29.6531  -76.6706 H         1 UNK         0.0847 
     91 H91       -72.3864   27.4138  -77.0915 H         1 UNK         0.3141 
     92 H92       -71.7180   24.1864  -76.6354 H         1 UNK         0.0743 
     93 H93       -73.4777   25.2636  -74.3685 H         1 UNK         0.0784 
     94 H94       -73.4130   23.6003  -74.9608 H         1 UNK         0.0784 
     95 H95       -72.0363   24.2887  -74.1312 H         1 UNK         0.0784 
     96 H96       -74.1320   25.9393  -76.6075 H         1 UNK         0.3213 
     97 H97       -74.2952   25.9831  -80.1537 H         1 UNK         0.0855 
     98 H98       -76.2382   24.5649  -78.2519 H         1 UNK         0.0814 
     99 H99       -75.4567   23.8046  -79.6310 H         1 UNK         0.0814 
    100 H100      -76.5926   25.1190  -79.8873 H         1 UNK         0.0814 
    101 H101      -76.0984   27.0163  -78.2308 H         1 UNK         0.3105 
    102 H102      -74.3428   29.7861  -77.0480 H         1 UNK         0.0547 
    103 H103      -74.9144   30.7032  -79.3057 H         1 UNK         0.0837 
    104 H104      -76.4895   29.9250  -79.2347 H         1 UNK         0.0837 
    105 H105      -76.0810   31.2089  -78.0960 H         1 UNK         0.0837 
    106 H106      -77.0887   29.2883  -76.8619 H         1 UNK         0.3020 
    107 H107      -77.2002   28.2829  -73.9454 H         1 UNK         0.1245 
    108 H108      -79.4789   27.6799  -74.9270 H         1 UNK         0.0781 
    109 H109      -78.7524   27.5830  -76.4972 H         1 UNK         0.0781 
    110 H110      -80.8000   29.7741  -74.2050 H         1 UNK         0.0836 
    111 H111      -80.1822   31.4008  -74.3781 H         1 UNK         0.0836 
    112 H112      -77.6443   25.6478  -75.2214 H         1 UNK         0.3022 
    113 H113      -75.4909   23.9793  -73.5148 H         1 UNK         0.0747 
    114 H114      -76.7472   22.6219  -71.8767 H         1 UNK         0.0793 
    115 H115      -76.3133   24.1717  -71.1802 H         1 UNK         0.0793 
    116 H116      -77.9627   23.8833  -71.7148 H         1 UNK         0.0793 
    117 H117      -78.3501   23.4443  -74.1369 H         1 UNK         0.3047 
    118 H118      -77.6454   22.6547  -77.4944 H         1 UNK         0.0822 
    119 H119      -78.5221   20.3734  -77.0640 H         1 UNK         0.0807 
    120 H120      -78.1770   20.5356  -75.3408 H         1 UNK         0.0807 
    121 H121      -76.8622   20.4940  -76.5071 H         1 UNK         0.0807 
    122 H122      -79.9730   22.1500  -75.9546 H         1 UNK         0.2946 
    123 H123      -81.6063   24.9921  -76.8810 H         1 UNK         0.1144 
    124 H124      -82.0515   22.5219  -76.8170 H         1 UNK         0.0793 
    125 H125      -83.1327   23.4089  -75.7627 H         1 UNK         0.0793 
    126 H126      -81.7902   22.5120  -75.0718 H         1 UNK         0.0793 
    127 H127      -81.9035   26.0401  -74.9219 H         1 UNK         0.2896 
@<TRIPOS>BOND
     1    1    2 1    
     2    1   67 1    
     3    1   68 1    
     4    1   69 1    
     5    2    3 2    
     6    2    4 am   BACKBONE|DICT|INTERRES
     7    4    5 1    
     8    4   70 1    
     9    5    6 1    
    10    5   65 1    
    11    5   71 1    
    12    6    7 1    
    13    6   72 1    
    14    6   73 1    
    15    7    8 1    
    16    8    9 1    
    17    8   74 1    
    18    8   75 1    
    19    9   10 ar   
    20    9   14 ar   
    21   10   11 ar   
    22   10   76 1    
    23   11   12 ar   
    24   11   48 1    
    25   12   13 ar   
    26   12   77 1    
    27   13   14 ar   
    28   13   15 1    
    29   14   78 1    
    30   15   16 1    
    31   15   79 1    
    32   15   80 1    
    33   16   17 1    
    34   17   18 1    
    35   17   81 1    
    36   17   82 1    
    37   18   19 1    
    38   18   22 1    
    39   18   83 1    
    40   19   20 am   BACKBONE|DICT|INTERRES
    41   19   21 2    
    42   20   84 1    
    43   20   85 1    
    44   22   23 am   BACKBONE|DICT|INTERRES
    45   22   86 1    
    46   23   24 2    
    47   23   25 1    
    48   25   26 1    
    49   25   27 1    
    50   25   87 1    
    51   26   88 1    
    52   26   89 1    
    53   26   90 1    
    54   27   28 am   BACKBONE|DICT|INTERRES
    55   27   91 1    
    56   28   29 2    
    57   28   30 1    
    58   30   31 1    
    59   30   32 1    
    60   30   92 1    
    61   31   93 1    
    62   31   94 1    
    63   31   95 1    
    64   32   33 am   BACKBONE|DICT|INTERRES
    65   32   96 1    
    66   33   34 2    
    67   33   35 1    
    68   35   36 1    
    69   35   37 1    
    70   35   97 1    
    71   36   98 1    
    72   36   99 1    
    73   36  100 1    
    74   37   38 am   BACKBONE|DICT|INTERRES
    75   37  101 1    
    76   38   39 2    
    77   38   40 1    
    78   40   41 1    
    79   40   42 1    
    80   40  102 1    
    81   41  103 1    
    82   41  104 1    
    83   41  105 1    
    84   42   43 am   BACKBONE|DICT|INTERRES
    85   42  106 1    
    86   43   44 2    
    87   43   45 1    
    88   45   46 1    
    89   45   49 1    
    90   45  107 1    
    91   46   47 1    
    92   46  108 1    
    93   46  109 1    
    94   47   48 1    
    95   48  110 1    
    96   48  111 1    
    97   49   50 am   BACKBONE|DICT|INTERRES
    98   49  112 1    
    99   50   51 2    
   100   50   52 1    
   101   52   53 1    
   102   52   54 1    
   103   52  113 1    
   104   53  114 1    
   105   53  115 1    
   106   53  116 1    
   107   54   55 am   BACKBONE|DICT|INTERRES
   108   54  117 1    
   109   55   56 2    
   110   55   57 1    
   111   57   58 1    
   112   57   59 1    
   113   57  118 1    
   114   58  119 1    
   115   58  120 1    
   116   58  121 1    
   117   59   60 am   BACKBONE|DICT|INTERRES
   118   59  122 1    
   119   60   61 2    
   120   60   62 1    
   121   62   63 1    
   122   62   64 1    
   123   62  123 1    
   124   63  124 1    
   125   63  125 1    
   126   63  126 1    
   127   64   65 am   BACKBONE|DICT|INTERRES
   128   64  127 1    
   129   65   66 2    
@<TRIPOS>SUBSTRUCTURE
     1 UNK         1 GROUP             0       ****    0 ROOT    
