@<TRIPOS>MOLECULE
3R135
127   129    1
SMALL
USER_CHARGES


@<TRIPOS>ATOM
      1 CA        -84.8954   29.0385  -76.9418 C.3       0 UNK        -0.1998 
      2 C         -83.4647   28.5426  -76.7984 C.2       0 UNK         0.4909 
      3 O         -82.6872   28.6256  -77.7505 O.2       0 UNK        -0.5240 
      4 N         -83.1086   28.0149  -75.6199 N.am      1 UNK        -0.4739 
      5 CA        -81.7834   27.4739  -75.2920 C.3       1 UNK         0.0864 
      6 C6        -81.5001   27.6045  -73.7718 C.3       11 UNK        -0.0881 
      7 S7        -79.7216   27.7414  -73.4099 S.3       11 UNK        -0.2682 
      8 C8        -79.7869   28.1733  -71.6483 C.3       11 UNK         0.0289 
      9 C9        -78.3902   28.3462  -71.0763 C.ar      11 UNK        -0.0687 
     10 C10       -77.8029   27.3262  -70.3210 C.ar      11 UNK        -0.0823 
     11 C11       -76.5220   27.4907  -69.7861 C.ar      11 UNK        -0.0830 
     12 C12       -75.8399   28.6939  -69.9935 C.ar      11 UNK        -0.1021 
     13 C13       -76.4093   29.7132  -70.7608 C.ar      11 UNK        -0.0753 
     14 C14       -77.6870   29.5343  -71.2977 C.ar      11 UNK        -0.0933 
     15 C15       -75.6491   31.0097  -71.0029 C.3       11 UNK         0.0166 
     16 S16       -74.6027   30.9157  -72.4907 S.3       11 UNK        -0.2615 
     17 C17       -73.2718   29.7986  -71.9291 C.3       11 UNK        -0.0865 
     18 CA        -71.9441   29.9899  -72.7060 C.3       10 UNK         0.0862 
     19 C         -70.7855   29.1604  -72.0751 C.2       10 UNK         0.5551 
     20 N         -70.0312   28.3669  -72.8276 N.am      10 UNK        -0.7319 
     21 O         -70.5557   29.2485  -70.8714 O.2       10 UNK        -0.5018 
     22 N         -72.1188   29.7536  -74.1475 N.am      10 UNK        -0.4509 
     23 C         -71.4515   30.4078  -75.1063 C.2       10 UNK         0.4899 
     24 O         -70.6715   31.3358  -74.8842 O.2       10 UNK        -0.4839 
     25 CA        -71.6910   29.9405  -76.5559 C.3       9 UNK         0.0222 
     26 CB        -70.5985   30.4286  -77.5312 C.3       9 UNK        -0.1966 
     27 N         -71.8808   28.4897  -76.6805 N.am      9 UNK        -0.4218 
     28 C         -71.0257   27.5196  -76.3132 C.2       9 UNK         0.5020 
     29 O         -69.9354   27.7429  -75.7849 O.2       9 UNK        -0.5274 
     30 CA        -71.4601   26.0576  -76.5407 C.3       8 UNK         0.0270 
     31 CB        -71.0805   25.1638  -75.3449 C.3       8 UNK        -0.1976 
     32 N         -72.9025   25.9551  -76.7646 N.am      8 UNK        -0.4313 
     33 C         -73.5021   25.8238  -77.9560 C.2       8 UNK         0.5041 
     34 O         -72.8931   25.6784  -79.0162 O.2       8 UNK        -0.5577 
     35 CA        -75.0420   25.8978  -77.9790 C.3       7 UNK         0.0284 
     36 CB        -75.6385   24.4826  -78.0324 C.3       7 UNK        -0.1958 
     37 N         -75.6094   26.6231  -76.8359 N.am      7 UNK        -0.4454 
     38 C         -75.4145   27.9281  -76.5856 C.2       7 UNK         0.5089 
     39 O         -74.8099   28.6790  -77.3507 O.2       7 UNK        -0.5125 
     40 CA        -75.8881   28.4752  -75.2242 C.3       6 UNK         0.0408 
     41 CB        -77.2452   29.1738  -75.3716 C.3       6 UNK        -0.1791 
     42 N         -75.9523   27.4498  -74.1740 N.am      6 UNK        -0.4762 
     43 C         -74.8892   26.7521  -73.7461 C.2       6 UNK         0.5007 
     44 O         -73.7385   27.0156  -74.1011 O.2       6 UNK        -0.5032 
     45 CA        -75.1195   25.5241  -72.8358 C.3       5 UNK         0.0783 
     46 C46       -74.4904   25.7331  -71.4215 C.3       11 UNK        -0.0857 
     47 S47       -75.3832   24.9442  -70.0271 S.3       11 UNK        -0.2512 
     48 C48       -75.8627   26.3704  -68.9904 C.3       11 UNK         0.0225 
     49 N         -76.4848   24.9726  -72.8096 N.am      5 UNK        -0.4615 
     50 C         -77.1955   24.5269  -73.8541 C.2       4 UNK         0.5053 
     51 O         -76.9192   24.7901  -75.0259 O.2       4 UNK        -0.5105 
     52 CA        -78.3702   23.5839  -73.5178 C.3       4 UNK         0.0263 
     53 CB        -79.3835   24.1943  -72.5355 C.3       4 UNK        -0.1981 
     54 N         -79.0745   23.1113  -74.7145 N.am      4 UNK        -0.4224 
     55 C         -78.6084   22.1499  -75.5273 C.2       3 UNK         0.4895 
     56 O         -77.5608   21.5351  -75.3171 O.2       3 UNK        -0.5091 
     57 CA        -79.4430   21.7644  -76.7640 C.3       3 UNK         0.0250 
     58 CB        -80.0106   20.3427  -76.6078 C.3       3 UNK        -0.1996 
     59 N         -80.5499   22.6780  -77.0519 N.am      3 UNK        -0.4254 
     60 C         -80.4370   23.8437  -77.7012 C.2       2 UNK         0.5004 
     61 O         -79.3717   24.2956  -78.1201 O.2       2 UNK        -0.5226 
     62 CA        -81.7300   24.6476  -77.9380 C.3       2 UNK         0.0269 
     63 CB        -83.0309   23.8468  -77.6956 C.3       2 UNK        -0.1926 
     64 N         -81.7508   25.8940  -77.1664 N.am      2 UNK        -0.4687 
     65 C         -81.6336   26.0329  -75.8378 C.2       1 UNK         0.5165 
     66 O         -81.4696   25.0824  -75.0696 O.2       1 UNK        -0.5079 
     67 H67       -85.4671   28.9063  -76.0233 H         1 UNK         0.0900 
     68 H68       -84.9010   30.0983  -77.1951 H         1 UNK         0.0900 
     69 H69       -85.4025   28.4947  -77.7384 H         1 UNK         0.0900 
     70 H70       -83.8013   27.9377  -74.8883 H         1 UNK         0.2959 
     71 H71       -81.0425   28.0820  -75.8173 H         1 UNK         0.1079 
     72 H72       -81.9659   28.5140  -73.3881 H         1 UNK         0.0837 
     73 H73       -81.9372   26.7850  -73.1980 H         1 UNK         0.0837 
     74 H74       -80.3530   29.0972  -71.5197 H         1 UNK         0.0685 
     75 H75       -80.3296   27.3971  -71.1063 H         1 UNK         0.0685 
     76 H76       -78.3381   26.4024  -70.1521 H         1 UNK         0.1434 
     77 H77       -74.8533   28.8302  -69.5729 H         1 UNK         0.1329 
     78 H78       -78.1355   30.3192  -71.8913 H         1 UNK         0.1335 
     79 H79       -76.3543   31.8331  -71.1253 H         1 UNK         0.0680 
     80 H80       -75.0384   31.2628  -70.1349 H         1 UNK         0.0680 
     81 H81       -73.6190   28.7718  -72.0212 H         1 UNK         0.1032 
     82 H82       -73.1082   29.9731  -70.8642 H         1 UNK         0.1032 
     83 H83       -71.6529   31.0323  -72.5641 H         1 UNK         0.0461 
     84 H84       -70.1709   28.2982  -73.8290 H         1 UNK         0.3453 
     85 H85       -69.2857   27.8473  -72.3934 H         1 UNK         0.3453 
     86 H86       -72.7095   28.9698  -74.3959 H         1 UNK         0.2984 
     87 H87       -72.6329   30.3959  -76.8644 H         1 UNK         0.0554 
     88 H88       -69.6124   30.0548  -77.2534 H         1 UNK         0.0847 
     89 H89       -70.5414   31.5177  -77.5437 H         1 UNK         0.0847 
     90 H90       -70.8044   30.1060  -78.5517 H         1 UNK         0.0847 
     91 H91       -72.7720   28.2157  -77.0789 H         1 UNK         0.3141 
     92 H92       -70.9182   25.6967  -77.4171 H         1 UNK         0.0743 
     93 H93       -69.9994   25.1379  -75.2021 H         1 UNK         0.0784 
     94 H94       -71.5218   25.5223  -74.4143 H         1 UNK         0.0784 
     95 H95       -71.4083   24.1355  -75.4982 H         1 UNK         0.0784 
     96 H96       -73.4774   26.1191  -75.9454 H         1 UNK         0.3213 
     97 H97       -75.3325   26.4287  -78.8880 H         1 UNK         0.0855 
     98 H98       -75.3754   23.8988  -77.1492 H         1 UNK         0.0814 
     99 H99       -75.2768   23.9372  -78.9050 H         1 UNK         0.0814 
    100 H100      -76.7256   24.5136  -78.0975 H         1 UNK         0.0814 
    101 H101      -76.1224   26.0634  -76.1553 H         1 UNK         0.3105 
    102 H102      -75.1595   29.2232  -74.9072 H         1 UNK         0.0547 
    103 H103      -78.0193   28.4824  -75.7056 H         1 UNK         0.0837 
    104 H104      -77.1902   29.9786  -76.1058 H         1 UNK         0.0837 
    105 H105      -77.5645   29.6198  -74.4298 H         1 UNK         0.0837 
    106 H106      -76.8700   27.1775  -73.8481 H         1 UNK         0.3020 
    107 H107      -74.5334   24.7343  -73.3116 H         1 UNK         0.1245 
    108 H108      -74.3583   26.7883  -71.1933 H         1 UNK         0.0781 
    109 H109      -73.4742   25.3349  -71.4227 H         1 UNK         0.0781 
    110 H110      -74.9759   26.7382  -68.4718 H         1 UNK         0.0836 
    111 H111      -76.5470   26.0286  -68.2125 H         1 UNK         0.0836 
    112 H112      -76.8032   24.7364  -71.8802 H         1 UNK         0.3022 
    113 H113      -77.9293   22.7164  -73.0219 H         1 UNK         0.0747 
    114 H114      -80.1190   23.4521  -72.2251 H         1 UNK         0.0793 
    115 H115      -78.9050   24.5642  -71.6293 H         1 UNK         0.0793 
    116 H116      -79.9287   25.0203  -72.9820 H         1 UNK         0.0793 
    117 H117      -79.9175   23.6128  -74.9724 H         1 UNK         0.3047 
    118 H118      -78.7623   21.7645  -77.6184 H         1 UNK         0.0822 
    119 H119      -80.5444   20.0270  -77.5045 H         1 UNK         0.0807 
    120 H120      -80.6982   20.2728  -75.7639 H         1 UNK         0.0807 
    121 H121      -79.2128   19.6181  -76.4382 H         1 UNK         0.0807 
    122 H122      -81.4632   22.4041  -76.7191 H         1 UNK         0.2946 
    123 H123      -81.7136   24.9336  -78.9912 H         1 UNK         0.1144 
    124 H124      -83.9048   24.4328  -77.9809 H         1 UNK         0.0793 
    125 H125      -83.1578   23.5628  -76.6504 H         1 UNK         0.0793 
    126 H126      -83.0521   22.9357  -78.2954 H         1 UNK         0.0793 
    127 H127      -81.9003   26.7447  -77.7006 H         1 UNK         0.2896 
@<TRIPOS>BOND
     1    1    2 1    
     2    1   67 1    
     3    1   68 1    
     4    1   69 1    
     5    2    3 2    
     6    2    4 am   BACKBONE|DICT|INTERRES
     7    4    5 1    
     8    4   70 1    
     9    5    6 1    
    10    5   65 1    
    11    5   71 1    
    12    6    7 1    
    13    6   72 1    
    14    6   73 1    
    15    7    8 1    
    16    8    9 1    
    17    8   74 1    
    18    8   75 1    
    19    9   10 ar   
    20    9   14 ar   
    21   10   11 ar   
    22   10   76 1    
    23   11   12 ar   
    24   11   48 1    
    25   12   13 ar   
    26   12   77 1    
    27   13   14 ar   
    28   13   15 1    
    29   14   78 1    
    30   15   16 1    
    31   15   79 1    
    32   15   80 1    
    33   16   17 1    
    34   17   18 1    
    35   17   81 1    
    36   17   82 1    
    37   18   19 1    
    38   18   22 1    
    39   18   83 1    
    40   19   20 am   BACKBONE|DICT|INTERRES
    41   19   21 2    
    42   20   84 1    
    43   20   85 1    
    44   22   23 am   BACKBONE|DICT|INTERRES
    45   22   86 1    
    46   23   24 2    
    47   23   25 1    
    48   25   26 1    
    49   25   27 1    
    50   25   87 1    
    51   26   88 1    
    52   26   89 1    
    53   26   90 1    
    54   27   28 am   BACKBONE|DICT|INTERRES
    55   27   91 1    
    56   28   29 2    
    57   28   30 1    
    58   30   31 1    
    59   30   32 1    
    60   30   92 1    
    61   31   93 1    
    62   31   94 1    
    63   31   95 1    
    64   32   33 am   BACKBONE|DICT|INTERRES
    65   32   96 1    
    66   33   34 2    
    67   33   35 1    
    68   35   36 1    
    69   35   37 1    
    70   35   97 1    
    71   36   98 1    
    72   36   99 1    
    73   36  100 1    
    74   37   38 am   BACKBONE|DICT|INTERRES
    75   37  101 1    
    76   38   39 2    
    77   38   40 1    
    78   40   41 1    
    79   40   42 1    
    80   40  102 1    
    81   41  103 1    
    82   41  104 1    
    83   41  105 1    
    84   42   43 am   BACKBONE|DICT|INTERRES
    85   42  106 1    
    86   43   44 2    
    87   43   45 1    
    88   45   46 1    
    89   45   49 1    
    90   45  107 1    
    91   46   47 1    
    92   46  108 1    
    93   46  109 1    
    94   47   48 1    
    95   48  110 1    
    96   48  111 1    
    97   49   50 am   BACKBONE|DICT|INTERRES
    98   49  112 1    
    99   50   51 2    
   100   50   52 1    
   101   52   53 1    
   102   52   54 1    
   103   52  113 1    
   104   53  114 1    
   105   53  115 1    
   106   53  116 1    
   107   54   55 am   BACKBONE|DICT|INTERRES
   108   54  117 1    
   109   55   56 2    
   110   55   57 1    
   111   57   58 1    
   112   57   59 1    
   113   57  118 1    
   114   58  119 1    
   115   58  120 1    
   116   58  121 1    
   117   59   60 am   BACKBONE|DICT|INTERRES
   118   59  122 1    
   119   60   61 2    
   120   60   62 1    
   121   62   63 1    
   122   62   64 1    
   123   62  123 1    
   124   63  124 1    
   125   63  125 1    
   126   63  126 1    
   127   64   65 am   BACKBONE|DICT|INTERRES
   128   64  127 1    
   129   65   66 2    
@<TRIPOS>SUBSTRUCTURE
     1 UNK         1 GROUP             0       ****    0 ROOT    
