@<TRIPOS>MOLECULE
3R135
127   129    1
SMALL
USER_CHARGES


@<TRIPOS>ATOM
      1 CA        -84.0580   25.8680  -72.4711 C.3       0 UNK        -0.1998 
      2 C         -84.0270   26.9945  -73.5018 C.2       0 UNK         0.4909 
      3 O         -85.0796   27.3314  -74.0404 O.2       0 UNK        -0.5240 
      4 N         -82.8801   27.6129  -73.8266 N.am      1 UNK        -0.4739 
      5 CA        -81.5100   27.3845  -73.3306 C.3       1 UNK         0.0864 
      6 C6        -81.3278   27.6259  -71.8037 C.3       11 UNK        -0.0881 
      7 S7        -81.8263   29.3178  -71.3216 S.3       11 UNK        -0.2682 
      8 C8        -80.4398   29.8778  -70.2738 C.3       11 UNK         0.0289 
      9 C9        -79.0913   29.8296  -70.9824 C.ar      11 UNK        -0.0687 
     10 C10       -78.8824   30.5460  -72.1664 C.ar      11 UNK        -0.0823 
     11 C11       -77.6581   30.4626  -72.8367 C.ar      11 UNK        -0.0830 
     12 C12       -76.6305   29.6865  -72.2967 C.ar      11 UNK        -0.1021 
     13 C13       -76.8196   28.9821  -71.1069 C.ar      11 UNK        -0.0753 
     14 C14       -78.0524   29.0551  -70.4533 C.ar      11 UNK        -0.0933 
     15 C15       -75.6969   28.1139  -70.5642 C.3       11 UNK         0.0166 
     16 S16       -74.2339   29.1037  -70.1345 S.3       11 UNK        -0.2615 
     17 C17       -72.8936   27.8854  -70.3596 C.3       11 UNK        -0.0865 
     18 CA        -71.8852   28.3183  -71.4600 C.3       10 UNK         0.0862 
     19 C         -70.5543   27.5086  -71.3712 C.2       10 UNK         0.5551 
     20 N         -69.9955   26.9914  -72.4582 N.am      10 UNK        -0.7319 
     21 O         -70.0017   27.3545  -70.2846 O.2       10 UNK        -0.5018 
     22 N         -72.4973   28.3444  -72.8038 N.am      10 UNK        -0.4509 
     23 C         -72.1004   29.1464  -73.8011 C.2       10 UNK         0.4899 
     24 O         -71.2521   30.0309  -73.6711 O.2       10 UNK        -0.4839 
     25 CA        -72.7327   28.8799  -75.1842 C.3       9 UNK         0.0222 
     26 CB        -72.1428   29.7659  -76.3005 C.3       9 UNK        -0.1966 
     27 N         -72.6726   27.4634  -75.5728 N.am      9 UNK        -0.4218 
     28 C         -71.5855   26.6788  -75.6238 C.2       9 UNK         0.5020 
     29 O         -70.4409   27.0665  -75.3887 O.2       9 UNK        -0.5274 
     30 CA        -71.8126   25.1942  -75.9471 C.3       8 UNK         0.0270 
     31 CB        -72.1337   24.4129  -74.6643 C.3       8 UNK        -0.1976 
     32 N         -72.8595   24.9689  -76.9491 N.am      8 UNK        -0.4313 
     33 C         -72.6720   25.1706  -78.2613 C.2       8 UNK         0.5041 
     34 O         -71.6376   25.6365  -78.7414 O.2       8 UNK        -0.5577 
     35 CA        -73.8121   24.7705  -79.2033 C.3       7 UNK         0.0284 
     36 CB        -73.9976   23.2425  -79.2413 C.3       7 UNK        -0.1958 
     37 N         -75.0669   25.4175  -78.8183 N.am      7 UNK        -0.4454 
     38 C         -75.7007   26.3272  -79.5698 C.2       7 UNK         0.5089 
     39 O         -75.2823   26.7365  -80.6539 O.2       7 UNK        -0.5125 
     40 CA        -77.0446   26.8645  -79.0539 C.3       6 UNK         0.0408 
     41 CB        -78.2031   26.0004  -79.5770 C.3       6 UNK        -0.1791 
     42 N         -77.1433   26.9708  -77.5982 N.am      6 UNK        -0.4762 
     43 C         -76.4915   27.8749  -76.8535 C.2       6 UNK         0.5007 
     44 O         -75.6055   28.6110  -77.2865 O.2       6 UNK        -0.5032 
     45 CA        -76.9072   27.9748  -75.3768 C.3       5 UNK         0.0783 
     46 C46       -78.3068   28.6140  -75.2091 C.3       11 UNK        -0.0857 
     47 S47       -78.3849   30.4095  -75.5412 S.3       11 UNK        -0.2512 
     48 C48       -77.4486   31.1696  -74.1676 C.3       11 UNK         0.0225 
     49 N         -76.8833   26.6520  -74.7609 N.am      5 UNK        -0.4615 
     50 C         -75.8839   26.1535  -74.0246 C.2       4 UNK         0.5053 
     51 O         -74.8638   26.7778  -73.7363 O.2       4 UNK        -0.5105 
     52 CA        -76.0280   24.6924  -73.5571 C.3       4 UNK         0.0263 
     53 CB        -76.6310   24.6299  -72.1455 C.3       4 UNK        -0.1981 
     54 N         -76.8309   23.8754  -74.4699 N.am      4 UNK        -0.4224 
     55 C         -76.5179   23.6369  -75.7521 C.2       3 UNK         0.4895 
     56 O         -75.4775   24.0276  -76.2848 O.2       3 UNK        -0.5091 
     57 CA        -77.5641   22.8982  -76.6046 C.3       3 UNK         0.0250 
     58 CB        -77.2451   21.3965  -76.6562 C.3       3 UNK        -0.1996 
     59 N         -78.9522   23.0916  -76.1619 N.am      3 UNK        -0.4254 
     60 C         -79.5830   24.2727  -76.0730 C.2       2 UNK         0.5004 
     61 O         -79.0448   25.3467  -76.3527 O.2       2 UNK        -0.5226 
     62 CA        -81.0502   24.2616  -75.5958 C.3       2 UNK         0.0269 
     63 CB        -81.4026   23.0511  -74.7005 C.3       2 UNK        -0.1926 
     64 N         -81.4362   25.5160  -74.9336 N.am      2 UNK        -0.4687 
     65 C         -80.9027   26.0480  -73.8213 C.2       1 UNK         0.5165 
     66 O         -79.9821   25.5256  -73.1921 O.2       1 UNK        -0.5079 
     67 H67       -84.1828   26.2805  -71.4705 H         1 UNK         0.0900 
     68 H68       -84.9046   25.2095  -72.6644 H         1 UNK         0.0900 
     69 H69       -83.1643   25.2488  -72.4854 H         1 UNK         0.0900 
     70 H70       -82.9441   28.3584  -74.5061 H         1 UNK         0.2959 
     71 H71       -80.9122   28.1462  -73.8312 H         1 UNK         0.1079 
     72 H72       -81.8929   26.9093  -71.2095 H         1 UNK         0.0837 
     73 H73       -80.2852   27.4724  -71.5226 H         1 UNK         0.0837 
     74 H74       -80.6333   30.9024  -69.9538 H         1 UNK         0.0685 
     75 H75       -80.4242   29.2714  -69.3668 H         1 UNK         0.0685 
     76 H76       -79.6851   31.1376  -72.5856 H         1 UNK         0.1434 
     77 H77       -75.6784   29.6136  -72.8045 H         1 UNK         0.1329 
     78 H78       -78.2070   28.4986  -69.5390 H         1 UNK         0.1335 
     79 H79       -75.4335   27.3840  -71.3254 H         1 UNK         0.0680 
     80 H80       -76.0184   27.5488  -69.6882 H         1 UNK         0.0680 
     81 H81       -72.3972   27.7941  -69.3917 H         1 UNK         0.1032 
     82 H82       -73.2964   26.8953  -70.5788 H         1 UNK         0.1032 
     83 H83       -71.5896   29.3410  -71.2179 H         1 UNK         0.0461 
     84 H84       -69.1325   26.4808  -72.3623 H         1 UNK         0.3453 
     85 H85       -70.3760   27.1565  -73.3824 H         1 UNK         0.3453 
     86 H86       -73.2173   27.6546  -72.9965 H         1 UNK         0.2984 
     87 H87       -73.7894   29.1310  -75.0892 H         1 UNK         0.0554 
     88 H88       -72.2589   30.8241  -76.0634 H         1 UNK         0.0847 
     89 H89       -72.6485   29.5903  -77.2502 H         1 UNK         0.0847 
     90 H90       -71.0785   29.5782  -76.4465 H         1 UNK         0.0847 
     91 H91       -73.5694   27.0204  -75.7145 H         1 UNK         0.3141 
     92 H92       -70.8759   24.7973  -76.3455 H         1 UNK         0.0743 
     93 H93       -71.2888   24.4400  -73.9748 H         1 UNK         0.0784 
     94 H94       -72.9856   24.8389  -74.1392 H         1 UNK         0.0784 
     95 H95       -72.3501   23.3650  -74.8731 H         1 UNK         0.0784 
     96 H96       -73.7425   24.5722  -76.6318 H         1 UNK         0.3213 
     97 H97       -73.5149   25.0802  -80.2077 H         1 UNK         0.0855 
     98 H98       -74.2798   22.8322  -78.2721 H         1 UNK         0.0814 
     99 H99       -73.0742   22.7478  -79.5453 H         1 UNK         0.0814 
    100 H100      -74.7673   22.9579  -79.9588 H         1 UNK         0.0814 
    101 H101      -75.4613   25.1485  -77.9232 H         1 UNK         0.3105 
    102 H102      -77.1696   27.8692  -79.4637 H         1 UNK         0.0547 
    103 H103      -79.1692   26.4173  -79.2921 H         1 UNK         0.0837 
    104 H104      -78.1852   25.9401  -80.6660 H         1 UNK         0.0837 
    105 H105      -78.1537   24.9814  -79.1936 H         1 UNK         0.0837 
    106 H106      -77.8545   26.3921  -77.1514 H         1 UNK         0.3020 
    107 H107      -76.1755   28.6126  -74.8806 H         1 UNK         0.1245 
    108 H108      -78.6609   28.4432  -74.1930 H         1 UNK         0.0781 
    109 H109      -79.0405   28.1190  -75.8483 H         1 UNK         0.0781 
    110 H110      -77.7450   32.2152  -74.0733 H         1 UNK         0.0836 
    111 H111      -76.3901   31.1808  -74.4325 H         1 UNK         0.0836 
    112 H112      -77.6696   26.0506  -74.9794 H         1 UNK         0.3022 
    113 H113      -75.0341   24.2476  -73.5158 H         1 UNK         0.0747 
    114 H114      -77.5955   25.1358  -72.0926 H         1 UNK         0.0793 
    115 H115      -76.7725   23.6003  -71.8167 H         1 UNK         0.0793 
    116 H116      -75.9718   25.1070  -71.4203 H         1 UNK         0.0793 
    117 H117      -77.7165   23.5388  -74.1202 H         1 UNK         0.3047 
    118 H118      -77.4856   23.2948  -77.6183 H         1 UNK         0.0822 
    119 H119      -76.2256   21.2258  -77.0059 H         1 UNK         0.0807 
    120 H120      -77.9110   20.8720  -77.3417 H         1 UNK         0.0807 
    121 H121      -77.3355   20.9294  -75.6747 H         1 UNK         0.0807 
    122 H122      -79.4646   22.2573  -75.9138 H         1 UNK         0.2946 
    123 H123      -81.6559   24.1952  -76.5011 H         1 UNK         0.1144 
    124 H124      -82.4287   23.1179  -74.3382 H         1 UNK         0.0793 
    125 H125      -80.7503   22.9833  -73.8289 H         1 UNK         0.0793 
    126 H126      -81.3262   22.1107  -75.2473 H         1 UNK         0.0793 
    127 H127      -82.1653   26.0440  -75.3932 H         1 UNK         0.2896 
@<TRIPOS>BOND
     1    1    2 1    
     2    1   67 1    
     3    1   68 1    
     4    1   69 1    
     5    2    3 2    
     6    2    4 am   BACKBONE|DICT|INTERRES
     7    4    5 1    
     8    4   70 1    
     9    5    6 1    
    10    5   65 1    
    11    5   71 1    
    12    6    7 1    
    13    6   72 1    
    14    6   73 1    
    15    7    8 1    
    16    8    9 1    
    17    8   74 1    
    18    8   75 1    
    19    9   10 ar   
    20    9   14 ar   
    21   10   11 ar   
    22   10   76 1    
    23   11   12 ar   
    24   11   48 1    
    25   12   13 ar   
    26   12   77 1    
    27   13   14 ar   
    28   13   15 1    
    29   14   78 1    
    30   15   16 1    
    31   15   79 1    
    32   15   80 1    
    33   16   17 1    
    34   17   18 1    
    35   17   81 1    
    36   17   82 1    
    37   18   19 1    
    38   18   22 1    
    39   18   83 1    
    40   19   20 am   BACKBONE|DICT|INTERRES
    41   19   21 2    
    42   20   84 1    
    43   20   85 1    
    44   22   23 am   BACKBONE|DICT|INTERRES
    45   22   86 1    
    46   23   24 2    
    47   23   25 1    
    48   25   26 1    
    49   25   27 1    
    50   25   87 1    
    51   26   88 1    
    52   26   89 1    
    53   26   90 1    
    54   27   28 am   BACKBONE|DICT|INTERRES
    55   27   91 1    
    56   28   29 2    
    57   28   30 1    
    58   30   31 1    
    59   30   32 1    
    60   30   92 1    
    61   31   93 1    
    62   31   94 1    
    63   31   95 1    
    64   32   33 am   BACKBONE|DICT|INTERRES
    65   32   96 1    
    66   33   34 2    
    67   33   35 1    
    68   35   36 1    
    69   35   37 1    
    70   35   97 1    
    71   36   98 1    
    72   36   99 1    
    73   36  100 1    
    74   37   38 am   BACKBONE|DICT|INTERRES
    75   37  101 1    
    76   38   39 2    
    77   38   40 1    
    78   40   41 1    
    79   40   42 1    
    80   40  102 1    
    81   41  103 1    
    82   41  104 1    
    83   41  105 1    
    84   42   43 am   BACKBONE|DICT|INTERRES
    85   42  106 1    
    86   43   44 2    
    87   43   45 1    
    88   45   46 1    
    89   45   49 1    
    90   45  107 1    
    91   46   47 1    
    92   46  108 1    
    93   46  109 1    
    94   47   48 1    
    95   48  110 1    
    96   48  111 1    
    97   49   50 am   BACKBONE|DICT|INTERRES
    98   49  112 1    
    99   50   51 2    
   100   50   52 1    
   101   52   53 1    
   102   52   54 1    
   103   52  113 1    
   104   53  114 1    
   105   53  115 1    
   106   53  116 1    
   107   54   55 am   BACKBONE|DICT|INTERRES
   108   54  117 1    
   109   55   56 2    
   110   55   57 1    
   111   57   58 1    
   112   57   59 1    
   113   57  118 1    
   114   58  119 1    
   115   58  120 1    
   116   58  121 1    
   117   59   60 am   BACKBONE|DICT|INTERRES
   118   59  122 1    
   119   60   61 2    
   120   60   62 1    
   121   62   63 1    
   122   62   64 1    
   123   62  123 1    
   124   63  124 1    
   125   63  125 1    
   126   63  126 1    
   127   64   65 am   BACKBONE|DICT|INTERRES
   128   64  127 1    
   129   65   66 2    
@<TRIPOS>SUBSTRUCTURE
     1 UNK         1 GROUP             0       ****    0 ROOT    
