@<TRIPOS>MOLECULE
3R135
127   129    1
SMALL
USER_CHARGES


@<TRIPOS>ATOM
      1 CA        -83.5718   28.4414  -75.3727 C.3       0 UNK        -0.1998 
      2 C         -82.3653   27.8007  -74.7055 C.2       0 UNK         0.4909 
      3 O         -81.9168   26.7418  -75.1446 O.2       0 UNK        -0.5240 
      4 N         -81.8218   28.4429  -73.6611 N.am      1 UNK        -0.4739 
      5 CA        -80.6789   27.9784  -72.8585 C.3       1 UNK         0.0864 
      6 C6        -81.0578   26.7987  -71.9172 C.3       11 UNK        -0.0881 
      7 S7        -81.9122   27.4352  -70.4302 S.3       11 UNK        -0.2682 
      8 C8        -80.6730   27.2640  -69.0917 C.3       11 UNK         0.0289 
      9 C9        -79.2376   27.4964  -69.5509 C.ar      11 UNK        -0.0687 
     10 C10       -78.3294   26.4348  -69.5512 C.ar      11 UNK        -0.0823 
     11 C11       -77.0360   26.6084  -70.0461 C.ar      11 UNK        -0.0830 
     12 C12       -76.6484   27.8587  -70.5329 C.ar      11 UNK        -0.1021 
     13 C13       -77.5468   28.9357  -70.5490 C.ar      11 UNK        -0.0753 
     14 C14       -78.8317   28.7469  -70.0267 C.ar      11 UNK        -0.0933 
     15 C15       -77.2131   30.2919  -71.1804 C.3       11 UNK         0.0166 
     16 S16       -75.4457   30.7492  -71.2243 S.3       11 UNK        -0.2615 
     17 C17       -74.8114   29.7566  -72.6221 C.3       11 UNK        -0.0865 
     18 CA        -74.4407   30.5428  -73.9061 C.3       10 UNK         0.0862 
     19 C         -73.2464   31.5240  -73.6817 C.2       10 UNK         0.5551 
     20 N         -72.0311   31.2120  -74.1193 N.am      10 UNK        -0.7319 
     21 O         -73.4294   32.6018  -73.1221 O.2       10 UNK        -0.5018 
     22 N         -74.2375   29.5766  -74.9933 N.am      10 UNK        -0.4509 
     23 C         -74.0411   29.8510  -76.2881 C.2       10 UNK         0.4899 
     24 O         -74.1777   30.9693  -76.7851 O.2       10 UNK        -0.4839 
     25 CA        -73.5955   28.6553  -77.1564 C.3       9 UNK         0.0222 
     26 CB        -72.8180   29.0861  -78.4167 C.3       9 UNK        -0.1966 
     27 N         -72.8401   27.6498  -76.3914 N.am      9 UNK        -0.4218 
     28 C         -71.6881   27.8280  -75.7214 C.2       9 UNK         0.5020 
     29 O         -71.0647   28.8894  -75.6953 O.2       9 UNK        -0.5274 
     30 CA        -71.1747   26.6467  -74.8838 C.3       8 UNK         0.0270 
     31 CB        -71.7180   26.7433  -73.4472 C.3       8 UNK        -0.1976 
     32 N         -71.5631   25.3604  -75.4629 N.am      8 UNK        -0.4313 
     33 C         -70.8192   24.6638  -76.3333 C.2       8 UNK         0.5041 
     34 O         -69.6792   24.9828  -76.6735 O.2       8 UNK        -0.5577 
     35 CA        -71.4568   23.3990  -76.9383 C.3       7 UNK         0.0284 
     36 CB        -71.1270   22.1659  -76.0816 C.3       7 UNK        -0.1958 
     37 N         -72.9099   23.5093  -77.0939 N.am      7 UNK        -0.4454 
     38 C         -73.5227   24.3489  -77.9407 C.2       7 UNK         0.5089 
     39 O         -72.9280   25.0623  -78.7481 O.2       7 UNK        -0.5125 
     40 CA        -75.0567   24.4307  -77.8564 C.3       6 UNK         0.0408 
     41 CB        -75.6906   23.5316  -78.9288 C.3       6 UNK        -0.1791 
     42 N         -75.6218   24.0948  -76.5422 N.am      6 UNK        -0.4762 
     43 C         -75.3641   24.7263  -75.3861 C.2       6 UNK         0.5007 
     44 O         -74.5379   25.6364  -75.2848 O.2       6 UNK        -0.5032 
     45 CA        -76.1466   24.2432  -74.1461 C.3       5 UNK         0.0783 
     46 C46       -75.8158   25.0519  -72.8635 C.3       11 UNK        -0.0857 
     47 S47       -76.4896   24.2387  -71.3760 S.3       11 UNK        -0.2512 
     48 C48       -76.0677   25.4347  -70.0685 C.3       11 UNK         0.0225 
     49 N         -77.5843   24.2441  -74.4311 N.am      5 UNK        -0.4615 
     50 C         -78.2684   23.2307  -74.9748 C.2       4 UNK         0.5053 
     51 O         -77.7552   22.1590  -75.2974 O.2       4 UNK        -0.5105 
     52 CA        -79.7583   23.4786  -75.2586 C.3       4 UNK         0.0263 
     53 CB        -80.5677   23.5464  -73.9537 C.3       4 UNK        -0.1981 
     54 N         -79.9557   24.7045  -76.0345 N.am      4 UNK        -0.4224 
     55 C         -79.6073   24.8480  -77.3223 C.2       3 UNK         0.4895 
     56 O         -79.1890   23.9270  -78.0232 O.2       3 UNK        -0.5091 
     57 CA        -79.7299   26.2525  -77.9339 C.3       3 UNK         0.0250 
     58 CB        -81.1381   26.4857  -78.5054 C.3       3 UNK        -0.1996 
     59 N         -79.4060   27.2950  -76.9584 N.am      3 UNK        -0.4254 
     60 C         -78.1562   27.6736  -76.6520 C.2       2 UNK         0.5004 
     61 O         -77.1551   27.2589  -77.2333 O.2       2 UNK        -0.5226 
     62 CA        -77.9796   28.6904  -75.5096 C.3       2 UNK         0.0269 
     63 CB        -77.7716   30.1029  -76.0783 C.3       2 UNK        -0.1926 
     64 N         -79.0952   28.7240  -74.5606 N.am      2 UNK        -0.4687 
     65 C         -79.4256   27.7279  -73.7264 C.2       1 UNK         0.5165 
     66 O         -78.8176   26.6591  -73.6754 O.2       1 UNK        -0.5079 
     67 H67       -83.3563   28.6442  -76.4214 H         1 UNK         0.0900 
     68 H68       -83.8527   29.3797  -74.8949 H         1 UNK         0.0900 
     69 H69       -84.4260   27.7667  -75.3249 H         1 UNK         0.0900 
     70 H70       -82.2371   29.3116  -73.3531 H         1 UNK         0.2959 
     71 H71       -80.3956   28.8281  -72.2381 H         1 UNK         0.1079 
     72 H72       -81.7154   26.0918  -72.4245 H         1 UNK         0.0837 
     73 H73       -80.1920   26.2110  -71.6134 H         1 UNK         0.0837 
     74 H74       -80.7770   26.2689  -68.6564 H         1 UNK         0.0685 
     75 H75       -80.9140   27.9692  -68.2953 H         1 UNK         0.0685 
     76 H76       -78.6357   25.4603  -69.1957 H         1 UNK         0.1434 
     77 H77       -75.6448   27.9676  -70.9097 H         1 UNK         0.1329 
     78 H78       -79.5422   29.5624  -70.0371 H         1 UNK         0.1335 
     79 H79       -77.7328   31.0777  -70.6299 H         1 UNK         0.0680 
     80 H80       -77.6122   30.3169  -72.1954 H         1 UNK         0.0680 
     81 H81       -73.9480   29.1898  -72.2679 H         1 UNK         0.1032 
     82 H82       -75.5687   29.0145  -72.8789 H         1 UNK         0.1032 
     83 H83       -75.2994   31.1547  -74.1874 H         1 UNK         0.0461 
     84 H84       -71.8522   30.3556  -74.6327 H         1 UNK         0.3453 
     85 H85       -71.2794   31.8659  -73.9718 H         1 UNK         0.3453 
     86 H86       -74.0997   28.6189  -74.7087 H         1 UNK         0.2984 
     87 H87       -74.5103   28.1598  -77.4846 H         1 UNK         0.0554 
     88 H88       -72.5229   28.2220  -79.0124 H         1 UNK         0.0847 
     89 H89       -71.9163   29.6454  -78.1655 H         1 UNK         0.0847 
     90 H90       -73.4297   29.7250  -79.0547 H         1 UNK         0.0847 
     91 H91       -73.3258   26.7679  -76.2552 H         1 UNK         0.3141 
     92 H92       -70.0857   26.7181  -74.8388 H         1 UNK         0.0743 
     93 H93       -71.4251   27.6860  -72.9825 H         1 UNK         0.0784 
     94 H94       -72.8065   26.6895  -73.4165 H         1 UNK         0.0784 
     95 H95       -71.3262   25.9407  -72.8223 H         1 UNK         0.0784 
     96 H96       -72.5051   25.0443  -75.2675 H         1 UNK         0.3213 
     97 H97       -71.0221   23.2538  -77.9299 H         1 UNK         0.0855 
     98 H98       -70.0481   22.0471  -75.9706 H         1 UNK         0.0814 
     99 H99       -71.5056   21.2514  -76.5386 H         1 UNK         0.0814 
    100 H100      -71.5503   22.2426  -75.0793 H         1 UNK         0.0814 
    101 H101      -73.4848   22.9426  -76.4876 H         1 UNK         0.3105 
    102 H102      -75.3326   25.4642  -78.0735 H         1 UNK         0.0547 
    103 H103      -75.5061   22.4749  -78.7325 H         1 UNK         0.0837 
    104 H104      -76.7678   23.6807  -78.9854 H         1 UNK         0.0837 
    105 H105      -75.2866   23.7558  -79.9171 H         1 UNK         0.0837 
    106 H106      -76.3174   23.3584  -76.5249 H         1 UNK         0.3020 
    107 H107      -75.8192   23.2155  -73.9718 H         1 UNK         0.1245 
    108 H108      -76.2075   26.0683  -72.9340 H         1 UNK         0.0781 
    109 H109      -74.7368   25.1403  -72.7250 H         1 UNK         0.0781 
    110 H110      -75.0386   25.7740  -70.1971 H         1 UNK         0.0836 
    111 H111      -76.1007   24.9261  -69.1039 H         1 UNK         0.0836 
    112 H112      -78.0783   25.1051  -74.1987 H         1 UNK         0.3022 
    113 H113      -80.1356   22.6394  -75.8469 H         1 UNK         0.0747 
    114 H114      -81.6247   23.7273  -74.1501 H         1 UNK         0.0793 
    115 H115      -80.4934   22.6087  -73.4018 H         1 UNK         0.0793 
    116 H116      -80.2095   24.3379  -73.2961 H         1 UNK         0.0793 
    117 H117      -80.3638   25.4972  -75.5488 H         1 UNK         0.3047 
    118 H118      -79.0206   26.3146  -78.7626 H         1 UNK         0.0822 
    119 H119      -81.3677   25.7505  -79.2778 H         1 UNK         0.0807 
    120 H120      -81.2226   27.4718  -78.9623 H         1 UNK         0.0807 
    121 H121      -81.9107   26.4020  -77.7413 H         1 UNK         0.0807 
    122 H122      -80.1720   27.6558  -76.4066 H         1 UNK         0.2946 
    123 H123      -77.0796   28.3985  -74.9634 H         1 UNK         0.1144 
    124 H124      -76.9599   30.1184  -76.8063 H         1 UNK         0.0793 
    125 H125      -78.6649   30.4694  -76.5854 H         1 UNK         0.0793 
    126 H126      -77.5145   30.8137  -75.2930 H         1 UNK         0.0793 
    127 H127      -79.6667   29.5569  -74.5631 H         1 UNK         0.2896 
@<TRIPOS>BOND
     1    1    2 1    
     2    1   67 1    
     3    1   68 1    
     4    1   69 1    
     5    2    3 2    
     6    2    4 am   BACKBONE|DICT|INTERRES
     7    4    5 1    
     8    4   70 1    
     9    5    6 1    
    10    5   65 1    
    11    5   71 1    
    12    6    7 1    
    13    6   72 1    
    14    6   73 1    
    15    7    8 1    
    16    8    9 1    
    17    8   74 1    
    18    8   75 1    
    19    9   10 ar   
    20    9   14 ar   
    21   10   11 ar   
    22   10   76 1    
    23   11   12 ar   
    24   11   48 1    
    25   12   13 ar   
    26   12   77 1    
    27   13   14 ar   
    28   13   15 1    
    29   14   78 1    
    30   15   16 1    
    31   15   79 1    
    32   15   80 1    
    33   16   17 1    
    34   17   18 1    
    35   17   81 1    
    36   17   82 1    
    37   18   19 1    
    38   18   22 1    
    39   18   83 1    
    40   19   20 am   BACKBONE|DICT|INTERRES
    41   19   21 2    
    42   20   84 1    
    43   20   85 1    
    44   22   23 am   BACKBONE|DICT|INTERRES
    45   22   86 1    
    46   23   24 2    
    47   23   25 1    
    48   25   26 1    
    49   25   27 1    
    50   25   87 1    
    51   26   88 1    
    52   26   89 1    
    53   26   90 1    
    54   27   28 am   BACKBONE|DICT|INTERRES
    55   27   91 1    
    56   28   29 2    
    57   28   30 1    
    58   30   31 1    
    59   30   32 1    
    60   30   92 1    
    61   31   93 1    
    62   31   94 1    
    63   31   95 1    
    64   32   33 am   BACKBONE|DICT|INTERRES
    65   32   96 1    
    66   33   34 2    
    67   33   35 1    
    68   35   36 1    
    69   35   37 1    
    70   35   97 1    
    71   36   98 1    
    72   36   99 1    
    73   36  100 1    
    74   37   38 am   BACKBONE|DICT|INTERRES
    75   37  101 1    
    76   38   39 2    
    77   38   40 1    
    78   40   41 1    
    79   40   42 1    
    80   40  102 1    
    81   41  103 1    
    82   41  104 1    
    83   41  105 1    
    84   42   43 am   BACKBONE|DICT|INTERRES
    85   42  106 1    
    86   43   44 2    
    87   43   45 1    
    88   45   46 1    
    89   45   49 1    
    90   45  107 1    
    91   46   47 1    
    92   46  108 1    
    93   46  109 1    
    94   47   48 1    
    95   48  110 1    
    96   48  111 1    
    97   49   50 am   BACKBONE|DICT|INTERRES
    98   49  112 1    
    99   50   51 2    
   100   50   52 1    
   101   52   53 1    
   102   52   54 1    
   103   52  113 1    
   104   53  114 1    
   105   53  115 1    
   106   53  116 1    
   107   54   55 am   BACKBONE|DICT|INTERRES
   108   54  117 1    
   109   55   56 2    
   110   55   57 1    
   111   57   58 1    
   112   57   59 1    
   113   57  118 1    
   114   58  119 1    
   115   58  120 1    
   116   58  121 1    
   117   59   60 am   BACKBONE|DICT|INTERRES
   118   59  122 1    
   119   60   61 2    
   120   60   62 1    
   121   62   63 1    
   122   62   64 1    
   123   62  123 1    
   124   63  124 1    
   125   63  125 1    
   126   63  126 1    
   127   64   65 am   BACKBONE|DICT|INTERRES
   128   64  127 1    
   129   65   66 2    
@<TRIPOS>SUBSTRUCTURE
     1 UNK         1 GROUP             0       ****    0 ROOT    
