@<TRIPOS>MOLECULE
3R135
127   129    1
SMALL
USER_CHARGES


@<TRIPOS>ATOM
      1 CA        -83.4080   26.6114  -74.6158 C.3       0 UNK        -0.1998 
      2 C         -82.1888   27.5146  -74.7156 C.2       0 UNK         0.4909 
      3 O         -81.8820   28.0160  -75.7980 O.2       0 UNK        -0.5240 
      4 N         -81.4810   27.7180  -73.5974 N.am      1 UNK        -0.4739 
      5 CA        -80.2340   28.4843  -73.5070 C.3       1 UNK         0.0864 
      6 C6        -79.7717   28.6781  -72.0386 C.3       11 UNK        -0.0881 
      7 S7        -79.7813   27.1520  -71.0272 S.3       11 UNK        -0.2682 
      8 C8        -78.8851   27.6910  -69.5360 C.3       11 UNK         0.0289 
      9 C9        -77.4435   28.0659  -69.8455 C.ar      11 UNK        -0.0687 
     10 C10       -76.5349   27.0839  -70.2486 C.ar      11 UNK        -0.0823 
     11 C11       -75.2169   27.4210  -70.5850 C.ar      11 UNK        -0.0830 
     12 C12       -74.8144   28.7573  -70.4810 C.ar      11 UNK        -0.1021 
     13 C13       -75.7073   29.7455  -70.0562 C.ar      11 UNK        -0.0753 
     14 C14       -77.0215   29.3933  -69.7399 C.ar      11 UNK        -0.0933 
     15 C15       -75.2527   31.1908  -69.9163 C.3       11 UNK         0.0166 
     16 S16       -76.0116   32.2740  -71.1671 S.3       11 UNK        -0.2615 
     17 C17       -75.1306   31.7849  -72.6906 C.3       11 UNK        -0.0865 
     18 CA        -75.9921   30.9503  -73.6750 C.3       10 UNK         0.0862 
     19 C         -77.1414   31.7707  -74.3174 C.2       10 UNK         0.5551 
     20 N         -78.3015   31.8279  -73.6783 N.am      10 UNK        -0.7319 
     21 O         -76.9862   32.3635  -75.3839 O.2       10 UNK        -0.5018 
     22 N         -75.1489   30.3795  -74.7309 N.am      10 UNK        -0.4509 
     23 C         -74.5905   29.1666  -74.7104 C.2       10 UNK         0.4899 
     24 O         -74.7409   28.3720  -73.7856 O.2       10 UNK        -0.4839 
     25 CA        -73.7743   28.7580  -75.9554 C.3       9 UNK         0.0222 
     26 CB        -72.9291   29.9157  -76.5328 C.3       9 UNK        -0.1966 
     27 N         -72.9407   27.5675  -75.7377 N.am      9 UNK        -0.4218 
     28 C         -71.9194   27.4279  -74.8737 C.2       9 UNK         0.5020 
     29 O         -71.5143   28.3274  -74.1352 O.2       9 UNK        -0.5274 
     30 CA        -71.2031   26.0614  -74.8197 C.3       8 UNK         0.0270 
     31 CB        -71.5642   25.3002  -73.5353 C.3       8 UNK        -0.1976 
     32 N         -71.4793   25.2040  -75.9743 N.am      8 UNK        -0.4313 
     33 C         -70.9699   25.3971  -77.1989 C.2       8 UNK         0.5041 
     34 O         -70.1359   26.2652  -77.4598 O.2       8 UNK        -0.5577 
     35 CA        -71.4814   24.4900  -78.3353 C.3       7 UNK         0.0284 
     36 CB        -70.4473   23.3976  -78.6542 C.3       7 UNK        -0.1958 
     37 N         -72.7847   23.8583  -78.0930 N.am      7 UNK        -0.4454 
     38 C         -73.9375   24.4984  -77.8501 C.2       7 UNK         0.5089 
     39 O         -74.0241   25.7226  -77.7400 O.2       7 UNK        -0.5125 
     40 CA        -75.2054   23.6398  -77.6762 C.3       6 UNK         0.0408 
     41 CB        -74.9960   22.1241  -77.8995 C.3       6 UNK        -0.1791 
     42 N         -75.8469   23.8870  -76.3817 N.am      6 UNK        -0.4762 
     43 C         -75.3165   23.6921  -75.1638 C.2       6 UNK         0.5007 
     44 O         -74.1699   23.2773  -74.9839 O.2       6 UNK        -0.5032 
     45 CA        -76.2023   24.0079  -73.9375 C.3       5 UNK         0.0783 
     46 C46       -75.6875   25.2481  -73.1553 C.3       11 UNK        -0.0857 
     47 S47       -74.8592   24.7777  -71.6007 S.3       11 UNK        -0.2512 
     48 C48       -74.1881   26.3865  -71.0495 C.3       11 UNK         0.0225 
     49 N         -77.6272   24.1324  -74.2697 N.am      5 UNK        -0.4615 
     50 C         -78.4549   23.0968  -74.4665 C.2       4 UNK         0.5053 
     51 O         -78.0970   21.9194  -74.4368 O.2       4 UNK        -0.5105 
     52 CA        -79.9285   23.4279  -74.7432 C.3       4 UNK         0.0263 
     53 CB        -80.6478   23.8522  -73.4513 C.3       4 UNK        -0.1981 
     54 N         -80.0499   24.4887  -75.7422 N.am      4 UNK        -0.4224 
     55 C         -80.1961   24.2803  -77.0589 C.2       3 UNK         0.4895 
     56 O         -80.2968   23.1633  -77.5672 O.2       3 UNK        -0.5091 
     57 CA        -80.2412   25.5177  -77.9756 C.3       3 UNK         0.0250 
     58 CB        -81.6866   25.8338  -78.3928 C.3       3 UNK        -0.1996 
     59 N         -79.6294   26.7045  -77.3691 N.am      3 UNK        -0.4254 
     60 C         -78.3030   26.8639  -77.2426 C.2       2 UNK         0.5004 
     61 O         -77.4846   26.0583  -77.6793 O.2       2 UNK        -0.5226 
     62 CA        -77.7916   28.0925  -76.4681 C.3       2 UNK         0.0269 
     63 CB        -77.4516   29.2298  -77.4440 C.3       2 UNK        -0.1926 
     64 N         -78.7166   28.5842  -75.4410 N.am      2 UNK        -0.4687 
     65 C         -79.1431   27.8560  -74.3995 C.2       1 UNK         0.5165 
     66 O         -78.7683   26.7014  -74.1879 O.2       1 UNK        -0.5079 
     67 H67       -84.2863   27.1214  -75.0106 H         1 UNK         0.0900 
     68 H68       -83.2502   25.7029  -75.1962 H         1 UNK         0.0900 
     69 H69       -83.6175   26.3239  -73.5855 H         1 UNK         0.0900 
     70 H70       -81.7528   27.2556  -72.7409 H         1 UNK         0.2959 
     71 H71       -80.4495   29.4783  -73.9054 H         1 UNK         0.1079 
     72 H72       -78.7764   29.1245  -72.0158 H         1 UNK         0.0837 
     73 H73       -80.4282   29.3980  -71.5475 H         1 UNK         0.0837 
     74 H74       -79.4188   28.5261  -69.0798 H         1 UNK         0.0685 
     75 H75       -78.8960   26.8817  -68.8048 H         1 UNK         0.0685 
     76 H76       -76.8764   26.0610  -70.3163 H         1 UNK         0.1434 
     77 H77       -73.7989   29.0285  -70.7357 H         1 UNK         0.1329 
     78 H78       -77.7162   30.1581  -69.4205 H         1 UNK         0.1335 
     79 H79       -74.1659   31.2703  -69.9731 H         1 UNK         0.0680 
     80 H80       -75.5312   31.5542  -68.9260 H         1 UNK         0.0680 
     81 H81       -74.7565   32.6859  -73.1802 H         1 UNK         0.1032 
     82 H82       -74.2430   31.2159  -72.4097 H         1 UNK         0.1032 
     83 H83       -76.4547   30.1297  -73.1215 H         1 UNK         0.0461 
     84 H84       -79.0474   32.3801  -74.0712 H         1 UNK         0.3453 
     85 H85       -78.3981   31.4323  -72.7573 H         1 UNK         0.3453 
     86 H86       -75.0461   30.9668  -75.5472 H         1 UNK         0.2984 
     87 H87       -74.5005   28.4671  -76.7154 H         1 UNK         0.0554 
     88 H88       -73.5573   30.7155  -76.9256 H         1 UNK         0.0847 
     89 H89       -72.3041   29.5735  -77.3578 H         1 UNK         0.0847 
     90 H90       -72.2728   30.3530  -75.7793 H         1 UNK         0.0847 
     91 H91       -73.1989   26.7671  -76.3085 H         1 UNK         0.3141 
     92 H92       -70.1303   26.2651  -74.7959 H         1 UNK         0.0743 
     93 H93       -71.3612   25.9039  -72.6498 H         1 UNK         0.0784 
     94 H94       -72.6192   25.0309  -73.5156 H         1 UNK         0.0784 
     95 H95       -70.9837   24.3824  -73.4406 H         1 UNK         0.0784 
     96 H96       -72.1622   24.4678  -75.8452 H         1 UNK         0.3213 
     97 H97       -71.5913   25.1237  -79.2178 H         1 UNK         0.0855 
     98 H98       -70.3170   22.7090  -77.8183 H         1 UNK         0.0814 
     99 H99       -69.4712   23.8345  -78.8706 H         1 UNK         0.0814 
    100 H100      -70.7385   22.8157  -79.5289 H         1 UNK         0.0814 
    101 H101      -72.8082   22.8498  -78.1372 H         1 UNK         0.3105 
    102 H102      -75.9071   23.9847  -78.4365 H         1 UNK         0.0547 
    103 H103      -75.9397   21.5861  -77.8073 H         1 UNK         0.0837 
    104 H104      -74.6147   21.9197  -78.9008 H         1 UNK         0.0837 
    105 H105      -74.3023   21.6878  -77.1800 H         1 UNK         0.0837 
    106 H106      -76.7566   24.3275  -76.4387 H         1 UNK         0.3020 
    107 H107      -76.1127   23.1296  -73.2937 H         1 UNK         0.1245 
    108 H108      -76.5049   25.9239  -72.8990 H         1 UNK         0.0781 
    109 H109      -74.9982   25.8463  -73.7527 H         1 UNK         0.0781 
    110 H110      -73.5946   26.8084  -71.8619 H         1 UNK         0.0836 
    111 H111      -73.4956   26.2018  -70.2276 H         1 UNK         0.0836 
    112 H112      -78.0109   25.0765  -74.2678 H         1 UNK         0.3022 
    113 H113      -80.4133   22.5196  -75.1081 H         1 UNK         0.0747 
    114 H114      -80.2196   24.7584  -73.0218 H         1 UNK         0.0793 
    115 H115      -81.7069   24.0364  -73.6308 H         1 UNK         0.0793 
    116 H116      -80.5792   23.0708  -72.6935 H         1 UNK         0.0793 
    117 H117      -79.9076   25.4348  -75.4100 H         1 UNK         0.3047 
    118 H118      -79.6817   25.2699  -78.8807 H         1 UNK         0.0822 
    119 H119      -82.1295   24.9913  -78.9257 H         1 UNK         0.0807 
    120 H120      -81.7291   26.6959  -79.0587 H         1 UNK         0.0807 
    121 H121      -82.3229   26.0418  -77.5334 H         1 UNK         0.0807 
    122 H122      -80.2582   27.3884  -76.9593 H         1 UNK         0.2946 
    123 H123      -76.8765   27.7807  -75.9608 H         1 UNK         0.1144 
    124 H124      -76.9978   30.0767  -76.9324 H         1 UNK         0.0793 
    125 H125      -78.3383   29.5906  -77.9668 H         1 UNK         0.0793 
    126 H126      -76.7412   28.8940  -78.2011 H         1 UNK         0.0793 
    127 H127      -79.1009   29.5074  -75.5844 H         1 UNK         0.2896 
@<TRIPOS>BOND
     1    1    2 1    
     2    1   67 1    
     3    1   68 1    
     4    1   69 1    
     5    2    3 2    
     6    2    4 am   BACKBONE|DICT|INTERRES
     7    4    5 1    
     8    4   70 1    
     9    5    6 1    
    10    5   65 1    
    11    5   71 1    
    12    6    7 1    
    13    6   72 1    
    14    6   73 1    
    15    7    8 1    
    16    8    9 1    
    17    8   74 1    
    18    8   75 1    
    19    9   10 ar   
    20    9   14 ar   
    21   10   11 ar   
    22   10   76 1    
    23   11   12 ar   
    24   11   48 1    
    25   12   13 ar   
    26   12   77 1    
    27   13   14 ar   
    28   13   15 1    
    29   14   78 1    
    30   15   16 1    
    31   15   79 1    
    32   15   80 1    
    33   16   17 1    
    34   17   18 1    
    35   17   81 1    
    36   17   82 1    
    37   18   19 1    
    38   18   22 1    
    39   18   83 1    
    40   19   20 am   BACKBONE|DICT|INTERRES
    41   19   21 2    
    42   20   84 1    
    43   20   85 1    
    44   22   23 am   BACKBONE|DICT|INTERRES
    45   22   86 1    
    46   23   24 2    
    47   23   25 1    
    48   25   26 1    
    49   25   27 1    
    50   25   87 1    
    51   26   88 1    
    52   26   89 1    
    53   26   90 1    
    54   27   28 am   BACKBONE|DICT|INTERRES
    55   27   91 1    
    56   28   29 2    
    57   28   30 1    
    58   30   31 1    
    59   30   32 1    
    60   30   92 1    
    61   31   93 1    
    62   31   94 1    
    63   31   95 1    
    64   32   33 am   BACKBONE|DICT|INTERRES
    65   32   96 1    
    66   33   34 2    
    67   33   35 1    
    68   35   36 1    
    69   35   37 1    
    70   35   97 1    
    71   36   98 1    
    72   36   99 1    
    73   36  100 1    
    74   37   38 am   BACKBONE|DICT|INTERRES
    75   37  101 1    
    76   38   39 2    
    77   38   40 1    
    78   40   41 1    
    79   40   42 1    
    80   40  102 1    
    81   41  103 1    
    82   41  104 1    
    83   41  105 1    
    84   42   43 am   BACKBONE|DICT|INTERRES
    85   42  106 1    
    86   43   44 2    
    87   43   45 1    
    88   45   46 1    
    89   45   49 1    
    90   45  107 1    
    91   46   47 1    
    92   46  108 1    
    93   46  109 1    
    94   47   48 1    
    95   48  110 1    
    96   48  111 1    
    97   49   50 am   BACKBONE|DICT|INTERRES
    98   49  112 1    
    99   50   51 2    
   100   50   52 1    
   101   52   53 1    
   102   52   54 1    
   103   52  113 1    
   104   53  114 1    
   105   53  115 1    
   106   53  116 1    
   107   54   55 am   BACKBONE|DICT|INTERRES
   108   54  117 1    
   109   55   56 2    
   110   55   57 1    
   111   57   58 1    
   112   57   59 1    
   113   57  118 1    
   114   58  119 1    
   115   58  120 1    
   116   58  121 1    
   117   59   60 am   BACKBONE|DICT|INTERRES
   118   59  122 1    
   119   60   61 2    
   120   60   62 1    
   121   62   63 1    
   122   62   64 1    
   123   62  123 1    
   124   63  124 1    
   125   63  125 1    
   126   63  126 1    
   127   64   65 am   BACKBONE|DICT|INTERRES
   128   64  127 1    
   129   65   66 2    
@<TRIPOS>SUBSTRUCTURE
     1 UNK         1 GROUP             0       ****    0 ROOT    
