@<TRIPOS>MOLECULE
3R135
127   129    1
SMALL
USER_CHARGES


@<TRIPOS>ATOM
      1 CA        -84.8879   26.9440  -72.5849 C.3       0 UNK        -0.1998 
      2 C         -83.6108   27.6261  -72.1021 C.2       0 UNK         0.4909 
      3 O         -83.4169   27.7607  -70.8958 O.2       0 UNK        -0.5240 
      4 N         -82.7123   28.0777  -72.9890 N.am      1 UNK        -0.4739 
      5 CA        -82.7585   27.9525  -74.4536 C.3       1 UNK         0.0864 
      6 C6        -81.8558   29.0096  -75.1452 C.3       11 UNK        -0.0881 
      7 S7        -80.0863   28.8924  -74.7032 S.3       11 UNK        -0.2682 
      8 C8        -79.9509   30.1569  -73.3995 C.3       11 UNK         0.0289 
      9 C9        -78.7710   29.8771  -72.4806 C.ar      11 UNK        -0.0687 
     10 C10       -78.7167   28.6783  -71.7636 C.ar      11 UNK        -0.0823 
     11 C11       -77.6385   28.4056  -70.9213 C.ar      11 UNK        -0.0830 
     12 C12       -76.6302   29.3579  -70.7648 C.ar      11 UNK        -0.1021 
     13 C13       -76.6590   30.5603  -71.4839 C.ar      11 UNK        -0.0753 
     14 C14       -77.7390   30.8104  -72.3384 C.ar      11 UNK        -0.0933 
     15 C15       -75.5504   31.6112  -71.3730 C.3       11 UNK         0.0166 
     16 S16       -73.9708   31.0248  -70.6610 S.3       11 UNK        -0.2615 
     17 C17       -73.4575   29.7635  -71.8804 C.3       11 UNK        -0.0865 
     18 CA        -72.2077   30.1925  -72.6945 C.3       10 UNK         0.0862 
     19 C         -70.8754   29.8198  -71.9720 C.2       10 UNK         0.5551 
     20 N         -70.0142   28.9804  -72.5369 N.am      10 UNK        -0.7319 
     21 O         -70.6087   30.3114  -70.8785 O.2       10 UNK        -0.5018 
     22 N         -72.3048   29.7175  -74.0816 N.am      10 UNK        -0.4509 
     23 C         -71.6257   30.2340  -75.1132 C.2       10 UNK         0.4899 
     24 O         -70.9215   31.2420  -75.0332 O.2       10 UNK        -0.4839 
     25 CA        -71.7535   29.4887  -76.4555 C.3       9 UNK         0.0222 
     26 CB        -70.5836   29.7872  -77.4167 C.3       9 UNK        -0.1966 
     27 N         -71.9391   28.0386  -76.3077 N.am      9 UNK        -0.4218 
     28 C         -71.1142   27.1662  -75.7023 C.2       9 UNK         0.5020 
     29 O         -70.0834   27.5023  -75.1171 O.2       9 UNK        -0.5274 
     30 CA        -71.4944   25.6706  -75.7199 C.3       8 UNK         0.0270 
     31 CB        -71.7985   25.1717  -74.2968 C.3       8 UNK        -0.1976 
     32 N         -72.6267   25.3530  -76.5943 N.am      8 UNK        -0.4313 
     33 C         -72.5958   25.3895  -77.9336 C.2       8 UNK         0.5041 
     34 O         -71.5731   25.5937  -78.5886 O.2       8 UNK        -0.5577 
     35 CA        -73.9360   25.2174  -78.6685 C.3       7 UNK         0.0284 
     36 CB        -74.1581   23.7415  -79.0339 C.3       7 UNK        -0.1958 
     37 N         -75.0926   25.7283  -77.9199 N.am      7 UNK        -0.4454 
     38 C         -75.2746   27.0102  -77.5647 C.2       7 UNK         0.5089 
     39 O         -74.4777   27.9093  -77.8316 O.2       7 UNK        -0.5125 
     40 CA        -76.5258   27.3408  -76.7316 C.3       6 UNK         0.0408 
     41 CB        -77.7862   27.3477  -77.6106 C.3       6 UNK        -0.1791 
     42 N         -76.7069   26.4175  -75.6114 N.am      6 UNK        -0.4762 
     43 C         -75.8651   26.2940  -74.5731 C.2       6 UNK         0.5007 
     44 O         -74.8813   27.0158  -74.3987 O.2       6 UNK        -0.5032 
     45 CA        -76.1288   25.1124  -73.6159 C.3       5 UNK         0.0783 
     46 C46       -77.1298   25.4640  -72.4842 C.3       11 UNK        -0.0857 
     47 S47       -76.2852   25.9997  -70.9600 S.3       11 UNK        -0.2512 
     48 C48       -77.5408   27.0744  -70.1948 C.3       11 UNK         0.0225 
     49 N         -76.5564   23.9214  -74.3546 N.am      5 UNK        -0.4615 
     50 C         -75.7554   23.1791  -75.1291 C.2       4 UNK         0.5053 
     51 O         -74.5602   23.4153  -75.3014 O.2       4 UNK        -0.5105 
     52 CA        -76.4065   21.9872  -75.8511 C.3       4 UNK         0.0263 
     53 CB        -76.4513   20.7578  -74.9300 C.3       4 UNK        -0.1981 
     54 N         -77.7561   22.2853  -76.3393 N.am      4 UNK        -0.4224 
     55 C         -78.0215   23.1636  -77.3163 C.2       3 UNK         0.4895 
     56 O         -77.1574   23.7943  -77.9215 O.2       3 UNK        -0.5091 
     57 CA        -79.4990   23.4153  -77.6528 C.3       3 UNK         0.0250 
     58 CB        -80.0183   22.3499  -78.6314 C.3       3 UNK        -0.1996 
     59 N         -80.3836   23.4866  -76.4850 N.am      3 UNK        -0.4254 
     60 C         -80.2478   24.3469  -75.4662 C.2       2 UNK         0.5004 
     61 O         -79.2844   25.1028  -75.3209 O.2       2 UNK        -0.5226 
     62 CA        -81.3658   24.3447  -74.4130 C.3       2 UNK         0.0269 
     63 CB        -80.8928   23.6567  -73.1226 C.3       2 UNK        -0.1926 
     64 N         -81.7948   25.7082  -74.1013 N.am      2 UNK        -0.4687 
     65 C         -82.4495   26.5198  -74.9459 C.2       1 UNK         0.5165 
     66 O         -82.8355   26.1709  -76.0624 O.2       1 UNK        -0.5079 
     67 H67       -84.6643   26.0084  -73.0960 H         1 UNK         0.0900 
     68 H68       -85.4498   27.5911  -73.2572 H         1 UNK         0.0900 
     69 H69       -85.5354   26.7100  -71.7400 H         1 UNK         0.0900 
     70 H70       -81.8821   28.5280  -72.6345 H         1 UNK         0.2959 
     71 H71       -83.7797   28.1647  -74.7755 H         1 UNK         0.1079 
     72 H72       -81.9381   28.9221  -76.2305 H         1 UNK         0.0837 
     73 H73       -82.2170   30.0126  -74.9120 H         1 UNK         0.0837 
     74 H74       -79.8614   31.1379  -73.8686 H         1 UNK         0.0685 
     75 H75       -80.8601   30.1839  -72.7987 H         1 UNK         0.0685 
     76 H76       -79.5043   27.9472  -71.8821 H         1 UNK         0.1434 
     77 H77       -75.8108   29.1339  -70.0973 H         1 UNK         0.1329 
     78 H78       -77.7752   31.7370  -72.8953 H         1 UNK         0.1335 
     79 H79       -75.3430   32.0285  -72.3598 H         1 UNK         0.0680 
     80 H80       -75.9176   32.4348  -70.7594 H         1 UNK         0.0680 
     81 H81       -74.2977   29.5753  -72.5511 H         1 UNK         0.1032 
     82 H82       -73.2930   28.8144  -71.3662 H         1 UNK         0.1032 
     83 H83       -72.2113   31.2828  -72.7545 H         1 UNK         0.0461 
     84 H84       -69.1586   28.7608  -72.0529 H         1 UNK         0.3453 
     85 H85       -70.1893   28.5745  -73.4503 H         1 UNK         0.3453 
     86 H86       -72.8523   28.8820  -74.2360 H         1 UNK         0.2984 
     87 H87       -72.6658   29.8634  -76.9213 H         1 UNK         0.0554 
     88 H88       -70.7053   29.2614  -78.3638 H         1 UNK         0.0847 
     89 H89       -69.6246   29.4915  -76.9898 H         1 UNK         0.0847 
     90 H90       -70.5238   30.8521  -77.6448 H         1 UNK         0.0847 
     91 H91       -72.7822   27.6779  -76.7438 H         1 UNK         0.3141 
     92 H92       -70.6233   25.1258  -76.0894 H         1 UNK         0.0743 
     93 H93       -72.6535   25.6875  -73.8603 H         1 UNK         0.0784 
     94 H94       -72.0116   24.1026  -74.2879 H         1 UNK         0.0784 
     95 H95       -70.9479   25.3360  -73.6339 H         1 UNK         0.0784 
     96 H96       -73.4952   25.0921  -76.1402 H         1 UNK         0.3213 
     97 H97       -73.8713   25.7901  -79.5961 H         1 UNK         0.0855 
     98 H98       -74.2735   23.1205  -78.1452 H         1 UNK         0.0814 
     99 H99       -73.3137   23.3469  -79.6008 H         1 UNK         0.0814 
    100 H100      -75.0476   23.6147  -79.6509 H         1 UNK         0.0814 
    101 H101      -75.8283   25.0545  -77.7134 H         1 UNK         0.3105 
    102 H102      -76.3990   28.3425  -76.3155 H         1 UNK         0.0547 
    103 H103      -77.6941   28.0759  -78.4171 H         1 UNK         0.0837 
    104 H104      -77.9693   26.3758  -78.0680 H         1 UNK         0.0837 
    105 H105      -78.6714   27.6127  -77.0330 H         1 UNK         0.0837 
    106 H106      -77.5310   25.8207  -75.6372 H         1 UNK         0.3020 
    107 H107      -75.1661   24.8616  -73.1633 H         1 UNK         0.1245 
    108 H108      -77.7147   24.5863  -72.2060 H         1 UNK         0.0781 
    109 H109      -77.8591   26.2075  -72.8105 H         1 UNK         0.0781 
    110 H110      -77.2694   27.2505  -69.1529 H         1 UNK         0.0836 
    111 H111      -78.5036   26.5611  -70.1780 H         1 UNK         0.0836 
    112 H112      -77.5422   23.7062  -74.3291 H         1 UNK         0.3022 
    113 H113      -75.7828   21.7424  -76.7134 H         1 UNK         0.0747 
    114 H114      -76.8337   19.8824  -75.4554 H         1 UNK         0.0793 
    115 H115      -75.4531   20.5059  -74.5687 H         1 UNK         0.0793 
    116 H116      -77.0811   20.9273  -74.0557 H         1 UNK         0.0793 
    117 H117      -78.5271   21.8082  -75.8951 H         1 UNK         0.3047 
    118 H118      -79.5525   24.3852  -78.1518 H         1 UNK         0.0822 
    119 H119      -81.0265   22.5832  -78.9745 H         1 UNK         0.0807 
    120 H120      -80.0379   21.3577  -78.1788 H         1 UNK         0.0807 
    121 H121      -79.3837   22.2914  -79.5171 H         1 UNK         0.0807 
    122 H122      -81.2004   22.8930  -76.5102 H         1 UNK         0.2946 
    123 H123      -82.2272   23.7986  -74.8046 H         1 UNK         0.1144 
    124 H124      -80.0600   24.1896  -72.6633 H         1 UNK         0.0793 
    125 H125      -80.5605   22.6366  -73.3201 H         1 UNK         0.0793 
    126 H126      -81.6965   23.5977  -72.3884 H         1 UNK         0.0793 
    127 H127      -81.4912   26.0911  -73.2185 H         1 UNK         0.2896 
@<TRIPOS>BOND
     1    1    2 1    
     2    1   67 1    
     3    1   68 1    
     4    1   69 1    
     5    2    3 2    
     6    2    4 am   BACKBONE|DICT|INTERRES
     7    4    5 1    
     8    4   70 1    
     9    5    6 1    
    10    5   65 1    
    11    5   71 1    
    12    6    7 1    
    13    6   72 1    
    14    6   73 1    
    15    7    8 1    
    16    8    9 1    
    17    8   74 1    
    18    8   75 1    
    19    9   10 ar   
    20    9   14 ar   
    21   10   11 ar   
    22   10   76 1    
    23   11   12 ar   
    24   11   48 1    
    25   12   13 ar   
    26   12   77 1    
    27   13   14 ar   
    28   13   15 1    
    29   14   78 1    
    30   15   16 1    
    31   15   79 1    
    32   15   80 1    
    33   16   17 1    
    34   17   18 1    
    35   17   81 1    
    36   17   82 1    
    37   18   19 1    
    38   18   22 1    
    39   18   83 1    
    40   19   20 am   BACKBONE|DICT|INTERRES
    41   19   21 2    
    42   20   84 1    
    43   20   85 1    
    44   22   23 am   BACKBONE|DICT|INTERRES
    45   22   86 1    
    46   23   24 2    
    47   23   25 1    
    48   25   26 1    
    49   25   27 1    
    50   25   87 1    
    51   26   88 1    
    52   26   89 1    
    53   26   90 1    
    54   27   28 am   BACKBONE|DICT|INTERRES
    55   27   91 1    
    56   28   29 2    
    57   28   30 1    
    58   30   31 1    
    59   30   32 1    
    60   30   92 1    
    61   31   93 1    
    62   31   94 1    
    63   31   95 1    
    64   32   33 am   BACKBONE|DICT|INTERRES
    65   32   96 1    
    66   33   34 2    
    67   33   35 1    
    68   35   36 1    
    69   35   37 1    
    70   35   97 1    
    71   36   98 1    
    72   36   99 1    
    73   36  100 1    
    74   37   38 am   BACKBONE|DICT|INTERRES
    75   37  101 1    
    76   38   39 2    
    77   38   40 1    
    78   40   41 1    
    79   40   42 1    
    80   40  102 1    
    81   41  103 1    
    82   41  104 1    
    83   41  105 1    
    84   42   43 am   BACKBONE|DICT|INTERRES
    85   42  106 1    
    86   43   44 2    
    87   43   45 1    
    88   45   46 1    
    89   45   49 1    
    90   45  107 1    
    91   46   47 1    
    92   46  108 1    
    93   46  109 1    
    94   47   48 1    
    95   48  110 1    
    96   48  111 1    
    97   49   50 am   BACKBONE|DICT|INTERRES
    98   49  112 1    
    99   50   51 2    
   100   50   52 1    
   101   52   53 1    
   102   52   54 1    
   103   52  113 1    
   104   53  114 1    
   105   53  115 1    
   106   53  116 1    
   107   54   55 am   BACKBONE|DICT|INTERRES
   108   54  117 1    
   109   55   56 2    
   110   55   57 1    
   111   57   58 1    
   112   57   59 1    
   113   57  118 1    
   114   58  119 1    
   115   58  120 1    
   116   58  121 1    
   117   59   60 am   BACKBONE|DICT|INTERRES
   118   59  122 1    
   119   60   61 2    
   120   60   62 1    
   121   62   63 1    
   122   62   64 1    
   123   62  123 1    
   124   63  124 1    
   125   63  125 1    
   126   63  126 1    
   127   64   65 am   BACKBONE|DICT|INTERRES
   128   64  127 1    
   129   65   66 2    
@<TRIPOS>SUBSTRUCTURE
     1 UNK         1 GROUP             0       ****    0 ROOT    
