@<TRIPOS>MOLECULE
3R135
127   129    1
SMALL
USER_CHARGES


@<TRIPOS>ATOM
      1 CA        -81.4002   21.8557  -73.5818 C.3       0 UNK        -0.1998 
      2 C         -81.8394   23.3011  -73.7568 C.2       0 UNK         0.4909 
      3 O         -82.3357   23.6659  -74.8232 O.2       0 UNK        -0.5240 
      4 N         -81.6460   24.1299  -72.7228 N.am      1 UNK        -0.4739 
      5 CA        -81.9360   25.5685  -72.7001 C.3       1 UNK         0.0864 
      6 C6        -81.7094   26.1940  -71.2955 C.3       11 UNK        -0.0881 
      7 S7        -80.1922   25.6354  -70.4338 S.3       11 UNK        -0.2682 
      8 C8        -79.6810   27.1326  -69.5359 C.3       11 UNK         0.0289 
      9 C9        -78.5528   27.8700  -70.2433 C.ar      11 UNK        -0.0687 
     10 C10       -78.8303   28.8986  -71.1486 C.ar      11 UNK        -0.0823 
     11 C11       -77.7882   29.6206  -71.7403 C.ar      11 UNK        -0.0830 
     12 C12       -76.4660   29.3100  -71.4126 C.ar      11 UNK        -0.1021 
     13 C13       -76.1699   28.2550  -70.5452 C.ar      11 UNK        -0.0753 
     14 C14       -77.2225   27.5444  -69.9590 C.ar      11 UNK        -0.0933 
     15 C15       -74.7277   27.8841  -70.2094 C.3       11 UNK         0.0166 
     16 S16       -73.6132   27.8774  -71.6571 S.3       11 UNK        -0.2615 
     17 C17       -72.8355   29.5302  -71.5697 C.3       11 UNK        -0.0865 
     18 CA        -72.8630   30.3062  -72.9136 C.3       10 UNK         0.0862 
     19 C         -72.2229   31.7097  -72.7266 C.2       10 UNK         0.5551 
     20 N         -73.0318   32.7382  -72.5118 N.am      10 UNK        -0.7319 
     21 O         -71.0025   31.8610  -72.7224 O.2       10 UNK        -0.5018 
     22 N         -72.2468   29.5241  -73.9945 N.am      10 UNK        -0.4509 
     23 C         -72.1367   29.8851  -75.2787 C.2       10 UNK         0.4899 
     24 O         -72.5161   30.9705  -75.7208 O.2       10 UNK        -0.4839 
     25 CA        -71.5332   28.8625  -76.2632 C.3       9 UNK         0.0222 
     26 CB        -70.0346   29.1355  -76.4995 C.3       9 UNK        -0.1966 
     27 N         -71.7849   27.4485  -75.9377 N.am      9 UNK        -0.4218 
     28 C         -71.3005   26.7111  -74.9275 C.2       9 UNK         0.5020 
     29 O         -70.5384   27.1567  -74.0685 O.2       9 UNK        -0.5274 
     30 CA        -71.7441   25.2388  -74.8358 C.3       8 UNK         0.0270 
     31 CB        -72.2505   24.8854  -73.4266 C.3       8 UNK        -0.1976 
     32 N         -72.7803   24.8850  -75.8111 N.am      8 UNK        -0.4313 
     33 C         -72.5396   24.3282  -77.0045 C.2       8 UNK         0.5041 
     34 O         -71.4099   24.0940  -77.4359 O.2       8 UNK        -0.5577 
     35 CA        -73.7607   23.9632  -77.8640 C.3       7 UNK         0.0284 
     36 CB        -74.3984   22.6572  -77.3634 C.3       7 UNK        -0.1958 
     37 N         -74.7776   25.0167  -77.9329 N.am      7 UNK        -0.4454 
     38 C         -74.5966   26.2096  -78.5184 C.2       7 UNK         0.5089 
     39 O         -73.5288   26.5780  -79.0086 O.2       7 UNK        -0.5125 
     40 CA        -75.8096   27.1554  -78.5666 C.3       6 UNK         0.0408 
     41 CB        -76.8267   26.6925  -79.6218 C.3       6 UNK        -0.1791 
     42 N         -76.4720   27.2949  -77.2702 N.am      6 UNK        -0.4762 
     43 C         -75.9116   27.8650  -76.1930 C.2       6 UNK         0.5007 
     44 O         -74.7960   28.3791  -76.2010 O.2       6 UNK        -0.5032 
     45 CA        -76.7162   27.8108  -74.8790 C.3       5 UNK         0.0783 
     46 C46       -77.8307   28.8909  -74.8595 C.3       11 UNK        -0.0857 
     47 S47       -77.2167   30.5215  -74.3223 S.3       11 UNK        -0.2512 
     48 C48       -78.0873   30.7389  -72.7318 C.3       11 UNK         0.0225 
     49 N         -77.2566   26.4723  -74.6242 N.am      5 UNK        -0.4615 
     50 C         -76.5525   25.3323  -74.5719 C.2       4 UNK         0.5053 
     51 O         -75.3286   25.2662  -74.6726 O.2       4 UNK        -0.5105 
     52 CA        -77.3635   24.0323  -74.4688 C.3       4 UNK         0.0263 
     53 CB        -77.7989   23.7607  -73.0205 C.3       4 UNK        -0.1981 
     54 N         -78.5302   24.0616  -75.3538 N.am      4 UNK        -0.4224 
     55 C         -78.4576   24.0276  -76.6933 C.2       3 UNK         0.4895 
     56 O         -77.4066   23.8936  -77.3189 O.2       3 UNK        -0.5091 
     57 CA        -79.7696   24.2257  -77.4684 C.3       3 UNK         0.0250 
     58 CB        -80.5160   22.8930  -77.6335 C.3       3 UNK        -0.1996 
     59 N         -80.6407   25.2194  -76.8350 N.am      3 UNK        -0.4254 
     60 C         -80.3733   26.5349  -76.8224 C.2       2 UNK         0.5004 
     61 O         -79.4004   27.0352  -77.3862 O.2       2 UNK        -0.5226 
     62 CA        -81.3162   27.4459  -76.0142 C.3       2 UNK         0.0269 
     63 CB        -82.4527   27.9685  -76.9065 C.3       2 UNK        -0.1926 
     64 N         -81.8849   26.8049  -74.8239 N.am      2 UNK        -0.4687 
     65 C         -81.1634   26.3115  -73.8076 C.2       1 UNK         0.5165 
     66 O         -79.9359   26.3739  -73.7587 O.2       1 UNK        -0.5079 
     67 H67       -82.2288   21.1832  -73.8018 H         1 UNK         0.0900 
     68 H68       -80.5829   21.6254  -74.2645 H         1 UNK         0.0900 
     69 H69       -81.0610   21.6538  -72.5659 H         1 UNK         0.0900 
     70 H70       -81.2012   23.7842  -71.8837 H         1 UNK         0.2959 
     71 H71       -83.0001   25.6717  -72.9238 H         1 UNK         0.1079 
     72 H72       -82.5503   25.9304  -70.6522 H         1 UNK         0.0837 
     73 H73       -81.7252   27.2840  -71.3553 H         1 UNK         0.0837 
     74 H74       -80.5337   27.7948  -69.3796 H         1 UNK         0.0685 
     75 H75       -79.3516   26.8373  -68.5386 H         1 UNK         0.0685 
     76 H76       -79.8576   29.1414  -71.3825 H         1 UNK         0.1434 
     77 H77       -75.6662   29.8794  -71.8599 H         1 UNK         0.1329 
     78 H78       -77.0087   26.7407  -69.2676 H         1 UNK         0.1335 
     79 H79       -74.6981   26.8823  -69.7780 H         1 UNK         0.0680 
     80 H80       -74.3495   28.5544  -69.4370 H         1 UNK         0.0680 
     81 H81       -71.8058   29.3952  -71.2322 H         1 UNK         0.1032 
     82 H82       -73.3282   30.1192  -70.7941 H         1 UNK         0.1032 
     83 H83       -73.9046   30.4488  -73.2063 H         1 UNK         0.0461 
     84 H84       -74.0333   32.6239  -72.5094 H         1 UNK         0.3453 
     85 H85       -72.6329   33.6531  -72.3702 H         1 UNK         0.3453 
     86 H86       -71.8494   28.6309  -73.7271 H         1 UNK         0.2984 
     87 H87       -72.0442   29.0221  -77.2142 H         1 UNK         0.0554 
     88 H88       -69.8795   30.1518  -76.8638 H         1 UNK         0.0847 
     89 H89       -69.6193   28.4571  -77.2446 H         1 UNK         0.0847 
     90 H90       -69.4505   29.0304  -75.5849 H         1 UNK         0.0847 
     91 H91       -72.4521   26.9939  -76.5470 H         1 UNK         0.3141 
     92 H92       -70.8507   24.6380  -75.0179 H         1 UNK         0.0743 
     93 H93       -73.1519   25.4418  -73.1733 H         1 UNK         0.0784 
     94 H94       -72.4829   23.8236  -73.3455 H         1 UNK         0.0784 
     95 H95       -71.5024   25.1112  -72.6655 H         1 UNK         0.0784 
     96 H96       -73.7461   25.0423  -75.5176 H         1 UNK         0.3213 
     97 H97       -73.4018   23.7905  -78.8810 H         1 UNK         0.0855 
     98 H98       -74.8248   22.7730  -76.3664 H         1 UNK         0.0814 
     99 H99       -73.6611   21.8548  -77.3132 H         1 UNK         0.0814 
    100 H100      -75.1940   22.3239  -78.0300 H         1 UNK         0.0814 
    101 H101      -75.7016   24.7800  -77.5794 H         1 UNK         0.3105 
    102 H102      -75.4489   28.1431  -78.8617 H         1 UNK         0.0547 
    103 H103      -76.3583   26.6029  -80.6027 H         1 UNK         0.0837 
    104 H104      -77.2560   25.7213  -79.3748 H         1 UNK         0.0837 
    105 H105      -77.6477   27.4033  -79.7180 H         1 UNK         0.0837 
    106 H106      -77.4252   26.9493  -77.2004 H         1 UNK         0.3020 
    107 H107      -76.0165   28.0069  -74.0628 H         1 UNK         0.1245 
    108 H108      -78.3073   29.0003  -75.8351 H         1 UNK         0.0781 
    109 H109      -78.6318   28.5936  -74.1830 H         1 UNK         0.0781 
    110 H110      -79.1586   30.8114  -72.9257 H         1 UNK         0.0836 
    111 H111      -77.7886   31.6913  -72.2921 H         1 UNK         0.0836 
    112 H112      -78.2586   26.4208  -74.4517 H         1 UNK         0.3022 
    113 H113      -76.7194   23.2095  -74.7859 H         1 UNK         0.0747 
    114 H114      -78.3447   22.8210  -72.9377 H         1 UNK         0.0793 
    115 H115      -76.9315   23.6915  -72.3628 H         1 UNK         0.0793 
    116 H116      -78.4346   24.5547  -72.6301 H         1 UNK         0.0793 
    117 H117      -79.4227   24.2559  -74.9241 H         1 UNK         0.3047 
    118 H118      -79.5111   24.5897  -78.4654 H         1 UNK         0.0822 
    119 H119      -81.4298   23.0195  -78.2142 H         1 UNK         0.0807 
    120 H120      -80.7874   22.4544  -76.6737 H         1 UNK         0.0807 
    121 H121      -79.8967   22.1647  -78.1589 H         1 UNK         0.0807 
    122 H122      -81.4378   24.8704  -76.3124 H         1 UNK         0.2946 
    123 H123      -80.7273   28.3013  -75.6773 H         1 UNK         0.1144 
    124 H124      -82.0550   28.4703  -77.7900 H         1 UNK         0.0793 
    125 H125      -83.0727   28.6924  -76.3774 H         1 UNK         0.0793 
    126 H126      -83.0985   27.1608  -77.2534 H         1 UNK         0.0793 
    127 H127      -82.8874   26.6800  -74.8161 H         1 UNK         0.2896 
@<TRIPOS>BOND
     1    1    2 1    
     2    1   67 1    
     3    1   68 1    
     4    1   69 1    
     5    2    3 2    
     6    2    4 am   BACKBONE|DICT|INTERRES
     7    4    5 1    
     8    4   70 1    
     9    5    6 1    
    10    5   65 1    
    11    5   71 1    
    12    6    7 1    
    13    6   72 1    
    14    6   73 1    
    15    7    8 1    
    16    8    9 1    
    17    8   74 1    
    18    8   75 1    
    19    9   10 ar   
    20    9   14 ar   
    21   10   11 ar   
    22   10   76 1    
    23   11   12 ar   
    24   11   48 1    
    25   12   13 ar   
    26   12   77 1    
    27   13   14 ar   
    28   13   15 1    
    29   14   78 1    
    30   15   16 1    
    31   15   79 1    
    32   15   80 1    
    33   16   17 1    
    34   17   18 1    
    35   17   81 1    
    36   17   82 1    
    37   18   19 1    
    38   18   22 1    
    39   18   83 1    
    40   19   20 am   BACKBONE|DICT|INTERRES
    41   19   21 2    
    42   20   84 1    
    43   20   85 1    
    44   22   23 am   BACKBONE|DICT|INTERRES
    45   22   86 1    
    46   23   24 2    
    47   23   25 1    
    48   25   26 1    
    49   25   27 1    
    50   25   87 1    
    51   26   88 1    
    52   26   89 1    
    53   26   90 1    
    54   27   28 am   BACKBONE|DICT|INTERRES
    55   27   91 1    
    56   28   29 2    
    57   28   30 1    
    58   30   31 1    
    59   30   32 1    
    60   30   92 1    
    61   31   93 1    
    62   31   94 1    
    63   31   95 1    
    64   32   33 am   BACKBONE|DICT|INTERRES
    65   32   96 1    
    66   33   34 2    
    67   33   35 1    
    68   35   36 1    
    69   35   37 1    
    70   35   97 1    
    71   36   98 1    
    72   36   99 1    
    73   36  100 1    
    74   37   38 am   BACKBONE|DICT|INTERRES
    75   37  101 1    
    76   38   39 2    
    77   38   40 1    
    78   40   41 1    
    79   40   42 1    
    80   40  102 1    
    81   41  103 1    
    82   41  104 1    
    83   41  105 1    
    84   42   43 am   BACKBONE|DICT|INTERRES
    85   42  106 1    
    86   43   44 2    
    87   43   45 1    
    88   45   46 1    
    89   45   49 1    
    90   45  107 1    
    91   46   47 1    
    92   46  108 1    
    93   46  109 1    
    94   47   48 1    
    95   48  110 1    
    96   48  111 1    
    97   49   50 am   BACKBONE|DICT|INTERRES
    98   49  112 1    
    99   50   51 2    
   100   50   52 1    
   101   52   53 1    
   102   52   54 1    
   103   52  113 1    
   104   53  114 1    
   105   53  115 1    
   106   53  116 1    
   107   54   55 am   BACKBONE|DICT|INTERRES
   108   54  117 1    
   109   55   56 2    
   110   55   57 1    
   111   57   58 1    
   112   57   59 1    
   113   57  118 1    
   114   58  119 1    
   115   58  120 1    
   116   58  121 1    
   117   59   60 am   BACKBONE|DICT|INTERRES
   118   59  122 1    
   119   60   61 2    
   120   60   62 1    
   121   62   63 1    
   122   62   64 1    
   123   62  123 1    
   124   63  124 1    
   125   63  125 1    
   126   63  126 1    
   127   64   65 am   BACKBONE|DICT|INTERRES
   128   64  127 1    
   129   65   66 2    
@<TRIPOS>SUBSTRUCTURE
     1 UNK         1 GROUP             0       ****    0 ROOT    
