@<TRIPOS>MOLECULE
3R135
127   129    1
SMALL
USER_CHARGES


@<TRIPOS>ATOM
      1 CA        -73.5789   24.9830  -70.3916 C.3       0 UNK        -0.1998 
      2 C         -75.0905   24.9877  -70.2202 C.2       0 UNK         0.4909 
      3 O         -75.6130   24.1987  -69.4321 O.2       0 UNK        -0.5240 
      4 N         -75.7965   25.8770  -70.9330 N.am      1 UNK        -0.4739 
      5 CA        -77.2580   25.9917  -70.8889 C.3       1 UNK         0.0864 
      6 C6        -77.7476   27.3515  -71.4483 C.3       11 UNK        -0.0881 
      7 S7        -79.2188   27.9628  -70.5576 S.3       11 UNK        -0.2682 
      8 C8        -80.4980   27.9967  -71.8607 C.3       11 UNK         0.0289 
      9 C9        -80.1945   28.9083  -73.0504 C.ar      11 UNK        -0.0687 
     10 C10       -80.7548   28.5996  -74.2926 C.ar      11 UNK        -0.0823 
     11 C11       -80.4901   29.3908  -75.4132 C.ar      11 UNK        -0.0830 
     12 C12       -79.6573   30.5049  -75.2900 C.ar      11 UNK        -0.1021 
     13 C13       -79.0957   30.8373  -74.0552 C.ar      11 UNK        -0.0753 
     14 C14       -79.3880   30.0482  -72.9359 C.ar      11 UNK        -0.0933 
     15 C15       -78.1934   32.0634  -73.9512 C.3       11 UNK         0.0166 
     16 S16       -76.7333   31.8194  -72.8879 S.3       11 UNK        -0.2615 
     17 C17       -75.8976   30.4085  -73.6946 C.3       11 UNK        -0.0865 
     18 CA        -74.4270   30.2525  -73.2207 C.3       10 UNK         0.0862 
     19 C         -74.3062   29.5531  -71.8296 C.2       10 UNK         0.5551 
     20 N         -73.5768   28.4533  -71.6855 N.am      10 UNK        -0.7319 
     21 O         -74.8665   30.0268  -70.8456 O.2       10 UNK        -0.5018 
     22 N         -73.5833   29.6616  -74.2731 N.am      10 UNK        -0.4509 
     23 C         -72.2634   29.8758  -74.3738 C.2       10 UNK         0.4899 
     24 O         -71.6481   30.6693  -73.6590 O.2       10 UNK        -0.4839 
     25 CA        -71.4988   29.0680  -75.4429 C.3       9 UNK         0.0222 
     26 CB        -69.9759   29.0478  -75.1936 C.3       9 UNK        -0.1966 
     27 N         -71.9923   27.6985  -75.6331 N.am      9 UNK        -0.4218 
     28 C         -72.1448   26.7432  -74.7001 C.2       9 UNK         0.5020 
     29 O         -71.9198   26.9213  -73.5024 O.2       9 UNK        -0.5274 
     30 CA        -72.6471   25.3641  -75.1679 C.3       8 UNK         0.0270 
     31 CB        -73.6956   24.7834  -74.2061 C.3       8 UNK        -0.1976 
     32 N         -73.2186   25.4265  -76.5137 N.am      8 UNK        -0.4313 
     33 C         -72.6470   24.9298  -77.6194 C.2       8 UNK         0.5041 
     34 O         -71.6236   24.2451  -77.6172 O.2       8 UNK        -0.5577 
     35 CA        -73.3015   25.2914  -78.9658 C.3       7 UNK         0.0284 
     36 CB        -74.1494   24.1220  -79.4911 C.3       7 UNK        -0.1958 
     37 N         -74.1093   26.5175  -78.9020 N.am      7 UNK        -0.4454 
     38 C         -73.5857   27.7427  -78.7298 C.2       7 UNK         0.5089 
     39 O         -72.3770   27.9503  -78.6293 O.2       7 UNK        -0.5125 
     40 CA        -74.5488   28.9338  -78.5835 C.3       6 UNK         0.0408 
     41 CB        -74.6844   29.6792  -79.9200 C.3       6 UNK        -0.1791 
     42 N         -75.8790   28.5662  -78.0973 N.am      6 UNK        -0.4762 
     43 C         -76.1533   28.0659  -76.8841 C.2       6 UNK         0.5007 
     44 O         -75.2917   27.8768  -76.0199 O.2       6 UNK        -0.5032 
     45 CA        -77.6224   27.6851  -76.5918 C.3       5 UNK         0.0783 
     46 C46       -78.6137   28.0592  -77.7398 C.3       11 UNK        -0.0857 
     47 S47       -80.3335   27.5217  -77.4365 S.3       11 UNK        -0.2512 
     48 C48       -81.0927   29.0283  -76.7601 C.3       11 UNK         0.0225 
     49 N         -77.7165   26.2780  -76.1938 N.am      5 UNK        -0.4615 
     50 C         -77.4171   25.2159  -76.9539 C.2       4 UNK         0.5053 
     51 O         -76.8952   25.2967  -78.0663 O.2       4 UNK        -0.5105 
     52 CA        -77.7878   23.8328  -76.3914 C.3       4 UNK         0.0263 
     53 CB        -76.5627   23.1419  -75.7781 C.3       4 UNK        -0.1981 
     54 N         -78.8489   23.9176  -75.3829 N.am      4 UNK        -0.4224 
     55 C         -80.1596   23.9783  -75.6674 C.2       3 UNK         0.4895 
     56 O         -80.6075   23.8614  -76.8091 O.2       3 UNK        -0.5091 
     57 CA        -81.1373   24.2439  -74.4997 C.3       3 UNK         0.0250 
     58 CB        -82.4938   23.5316  -74.6886 C.3       3 UNK        -0.1996 
     59 N         -80.5785   23.9720  -73.1680 N.am      3 UNK        -0.4254 
     60 C         -80.1462   22.7956  -72.6896 C.2       2 UNK         0.5004 
     61 O         -80.2522   21.7288  -73.2965 O.2       2 UNK        -0.5226 
     62 CA        -79.4532   22.8231  -71.3101 C.3       2 UNK         0.0269 
     63 CB        -78.4057   21.6971  -71.1725 C.3       2 UNK        -0.1926 
     64 N         -78.8420   24.1118  -70.9357 N.am      2 UNK        -0.4687 
     65 C         -77.9083   24.7973  -71.6153 C.2       1 UNK         0.5165 
     66 O         -77.5624   24.5333  -72.7698 O.2       1 UNK        -0.5079 
     67 H67       -73.0933   25.1709  -69.4345 H         1 UNK         0.0900 
     68 H68       -73.2412   25.7425  -71.0949 H         1 UNK         0.0900 
     69 H69       -73.2464   24.0112  -70.7553 H         1 UNK         0.0900 
     70 H70       -75.3227   26.4850  -71.5854 H         1 UNK         0.2959 
     71 H71       -77.5319   25.9390  -69.8322 H         1 UNK         0.1079 
     72 H72       -77.9228   27.3155  -72.5255 H         1 UNK         0.0837 
     73 H73       -76.9805   28.1139  -71.3060 H         1 UNK         0.0837 
     74 H74       -80.6567   26.9744  -72.2054 H         1 UNK         0.0685 
     75 H75       -81.4377   28.3204  -71.4116 H         1 UNK         0.0685 
     76 H76       -81.3958   27.7352  -74.3955 H         1 UNK         0.1434 
     77 H77       -79.4462   31.1149  -76.1580 H         1 UNK         0.1329 
     78 H78       -78.9688   30.3176  -71.9770 H         1 UNK         0.1335 
     79 H79       -78.7793   32.8932  -73.5542 H         1 UNK         0.0680 
     80 H80       -77.8488   32.3727  -74.9393 H         1 UNK         0.0680 
     81 H81       -76.4671   29.4923  -73.5295 H         1 UNK         0.1032 
     82 H82       -75.9260   30.5897  -74.7703 H         1 UNK         0.1032 
     83 H83       -74.0442   31.2624  -73.0600 H         1 UNK         0.0461 
     84 H84       -73.4746   28.0697  -70.7610 H         1 UNK         0.3453 
     85 H85       -73.0391   28.0638  -72.4548 H         1 UNK         0.3453 
     86 H86       -74.0259   28.9770  -74.8781 H         1 UNK         0.2984 
     87 H87       -71.6709   29.5853  -76.3876 H         1 UNK         0.0554 
     88 H88       -69.5652   30.0581  -75.1761 H         1 UNK         0.0847 
     89 H89       -69.4525   28.5027  -75.9790 H         1 UNK         0.0847 
     90 H90       -69.7310   28.5793  -74.2395 H         1 UNK         0.0847 
     91 H91       -72.1934   27.4563  -76.5963 H         1 UNK         0.3141 
     92 H92       -71.7794   24.7018  -75.1529 H         1 UNK         0.0743 
     93 H93       -74.5923   25.4029  -74.1547 H         1 UNK         0.0784 
     94 H94       -73.9841   23.7789  -74.5120 H         1 UNK         0.0784 
     95 H95       -73.2934   24.6943  -73.1988 H         1 UNK         0.0784 
     96 H96       -74.0533   25.9918  -76.6133 H         1 UNK         0.3213 
     97 H97       -72.4947   25.4652  -79.6815 H         1 UNK         0.0855 
     98 H98       -73.5249   23.2473  -79.6775 H         1 UNK         0.0814 
     99 H99       -74.6422   24.3738  -80.4302 H         1 UNK         0.0814 
    100 H100      -74.9152   23.8201  -78.7776 H         1 UNK         0.0814 
    101 H101      -75.1165   26.4048  -78.9258 H         1 UNK         0.3105 
    102 H102      -74.1090   29.6191  -77.8555 H         1 UNK         0.0547 
    103 H103      -73.7080   29.9931  -80.2922 H         1 UNK         0.0837 
    104 H104      -75.1392   29.0533  -80.6888 H         1 UNK         0.0837 
    105 H105      -75.2913   30.5785  -79.8145 H         1 UNK         0.0837 
    106 H106      -76.6375   28.6707  -78.7557 H         1 UNK         0.3020 
    107 H107      -77.8981   28.2642  -75.7100 H         1 UNK         0.1245 
    108 H108      -78.3119   27.5913  -78.6785 H         1 UNK         0.0781 
    109 H109      -78.6091   29.1363  -77.9174 H         1 UNK         0.0781 
    110 H110      -82.1647   28.8634  -76.6433 H         1 UNK         0.0836 
    111 H111      -80.9854   29.8452  -77.4755 H         1 UNK         0.0836 
    112 H112      -78.1049   26.1063  -75.2793 H         1 UNK         0.3022 
    113 H113      -78.1329   23.2235  -77.2295 H         1 UNK         0.0747 
    114 H114      -75.7238   23.1250  -76.4751 H         1 UNK         0.0793 
    115 H115      -76.2343   23.6529  -74.8751 H         1 UNK         0.0793 
    116 H116      -76.7862   22.1091  -75.5109 H         1 UNK         0.0793 
    117 H117      -78.5460   24.0104  -74.4171 H         1 UNK         0.3047 
    118 H118      -81.3313   25.3165  -74.5264 H         1 UNK         0.0822 
    119 H119      -82.3782   22.4496  -74.7554 H         1 UNK         0.0807 
    120 H120      -82.9853   23.8610  -75.6049 H         1 UNK         0.0807 
    121 H121      -83.1739   23.7468  -73.8645 H         1 UNK         0.0807 
    122 H122      -80.4360   24.7789  -72.5784 H         1 UNK         0.2946 
    123 H123      -80.2422   22.6313  -70.5809 H         1 UNK         0.1144 
    124 H124      -77.9367   21.7090  -70.1885 H         1 UNK         0.0793 
    125 H125      -77.6163   21.7896  -71.9196 H         1 UNK         0.0793 
    126 H126      -78.8611   20.7140  -71.2989 H         1 UNK         0.0793 
    127 H127      -79.0864   24.4440  -70.0122 H         1 UNK         0.2896 
@<TRIPOS>BOND
     1    1    2 1    
     2    1   67 1    
     3    1   68 1    
     4    1   69 1    
     5    2    3 2    
     6    2    4 am   BACKBONE|DICT|INTERRES
     7    4    5 1    
     8    4   70 1    
     9    5    6 1    
    10    5   65 1    
    11    5   71 1    
    12    6    7 1    
    13    6   72 1    
    14    6   73 1    
    15    7    8 1    
    16    8    9 1    
    17    8   74 1    
    18    8   75 1    
    19    9   10 ar   
    20    9   14 ar   
    21   10   11 ar   
    22   10   76 1    
    23   11   12 ar   
    24   11   48 1    
    25   12   13 ar   
    26   12   77 1    
    27   13   14 ar   
    28   13   15 1    
    29   14   78 1    
    30   15   16 1    
    31   15   79 1    
    32   15   80 1    
    33   16   17 1    
    34   17   18 1    
    35   17   81 1    
    36   17   82 1    
    37   18   19 1    
    38   18   22 1    
    39   18   83 1    
    40   19   20 am   BACKBONE|DICT|INTERRES
    41   19   21 2    
    42   20   84 1    
    43   20   85 1    
    44   22   23 am   BACKBONE|DICT|INTERRES
    45   22   86 1    
    46   23   24 2    
    47   23   25 1    
    48   25   26 1    
    49   25   27 1    
    50   25   87 1    
    51   26   88 1    
    52   26   89 1    
    53   26   90 1    
    54   27   28 am   BACKBONE|DICT|INTERRES
    55   27   91 1    
    56   28   29 2    
    57   28   30 1    
    58   30   31 1    
    59   30   32 1    
    60   30   92 1    
    61   31   93 1    
    62   31   94 1    
    63   31   95 1    
    64   32   33 am   BACKBONE|DICT|INTERRES
    65   32   96 1    
    66   33   34 2    
    67   33   35 1    
    68   35   36 1    
    69   35   37 1    
    70   35   97 1    
    71   36   98 1    
    72   36   99 1    
    73   36  100 1    
    74   37   38 am   BACKBONE|DICT|INTERRES
    75   37  101 1    
    76   38   39 2    
    77   38   40 1    
    78   40   41 1    
    79   40   42 1    
    80   40  102 1    
    81   41  103 1    
    82   41  104 1    
    83   41  105 1    
    84   42   43 am   BACKBONE|DICT|INTERRES
    85   42  106 1    
    86   43   44 2    
    87   43   45 1    
    88   45   46 1    
    89   45   49 1    
    90   45  107 1    
    91   46   47 1    
    92   46  108 1    
    93   46  109 1    
    94   47   48 1    
    95   48  110 1    
    96   48  111 1    
    97   49   50 am   BACKBONE|DICT|INTERRES
    98   49  112 1    
    99   50   51 2    
   100   50   52 1    
   101   52   53 1    
   102   52   54 1    
   103   52  113 1    
   104   53  114 1    
   105   53  115 1    
   106   53  116 1    
   107   54   55 am   BACKBONE|DICT|INTERRES
   108   54  117 1    
   109   55   56 2    
   110   55   57 1    
   111   57   58 1    
   112   57   59 1    
   113   57  118 1    
   114   58  119 1    
   115   58  120 1    
   116   58  121 1    
   117   59   60 am   BACKBONE|DICT|INTERRES
   118   59  122 1    
   119   60   61 2    
   120   60   62 1    
   121   62   63 1    
   122   62   64 1    
   123   62  123 1    
   124   63  124 1    
   125   63  125 1    
   126   63  126 1    
   127   64   65 am   BACKBONE|DICT|INTERRES
   128   64  127 1    
   129   65   66 2    
@<TRIPOS>SUBSTRUCTURE
     1 UNK         1 GROUP             0       ****    0 ROOT    
