@<TRIPOS>MOLECULE
3R135
127   129    1
SMALL
USER_CHARGES


@<TRIPOS>ATOM
      1 CA        -83.0369   25.9219  -72.7743 C.3       0 UNK        -0.1998 
      2 C         -82.3990   26.2803  -74.1071 C.2       0 UNK         0.4909 
      3 O         -82.9480   25.9407  -75.1559 O.2       0 UNK        -0.5240 
      4 N         -81.2433   26.9595  -74.0776 N.am      1 UNK        -0.4739 
      5 CA        -80.4992   27.4385  -75.2502 C.3       1 UNK         0.0864 
      6 C6        -79.2835   28.3455  -74.8928 C.3       11 UNK        -0.0881 
      7 S7        -79.5011   29.3483  -73.3743 S.3       11 UNK        -0.2682 
      8 C8        -77.8261   30.0217  -73.1018 C.3       11 UNK         0.0289 
      9 C9        -76.9145   29.1714  -72.2128 C.ar      11 UNK        -0.0687 
     10 C10       -76.8620   27.7760  -72.3178 C.ar      11 UNK        -0.0823 
     11 C11       -75.9295   27.0338  -71.5898 C.ar      11 UNK        -0.0830 
     12 C12       -75.0718   27.6887  -70.7026 C.ar      11 UNK        -0.1021 
     13 C13       -75.1333   29.0777  -70.5552 C.ar      11 UNK        -0.0753 
     14 C14       -76.0512   29.8108  -71.3153 C.ar      11 UNK        -0.0933 
     15 C15       -74.2047   29.7816  -69.5751 C.3       11 UNK         0.0166 
     16 S16       -72.5529   30.0809  -70.2839 S.3       11 UNK        -0.2615 
     17 C17       -72.8722   31.4711  -71.4264 C.3       11 UNK        -0.0865 
     18 CA        -72.9538   31.0249  -72.9149 C.3       10 UNK         0.0862 
     19 C         -73.4431   32.1598  -73.8656 C.2       10 UNK         0.5551 
     20 N         -72.9751   32.2373  -75.1072 N.am      10 UNK        -0.7319 
     21 O         -74.2893   32.9653  -73.4863 O.2       10 UNK        -0.5018 
     22 N         -71.7524   30.3171  -73.3858 N.am      10 UNK        -0.4509 
     23 C         -70.5153   30.8195  -73.5050 C.2       10 UNK         0.4899 
     24 O         -70.1885   31.9449  -73.1273 O.2       10 UNK        -0.4839 
     25 CA        -69.4577   29.9311  -74.1919 C.3       9 UNK         0.0222 
     26 CB        -68.5824   29.2323  -73.1390 C.3       9 UNK        -0.1966 
     27 N         -70.0217   28.9228  -75.0968 N.am      9 UNK        -0.4218 
     28 C         -70.7371   29.1820  -76.2011 C.2       9 UNK         0.5020 
     29 O         -70.9476   30.3190  -76.6288 O.2       9 UNK        -0.5274 
     30 CA        -71.3900   27.9817  -76.9177 C.3       8 UNK         0.0270 
     31 CB        -70.8131   26.6061  -76.5110 C.3       8 UNK        -0.1976 
     32 N         -72.8470   27.9961  -76.7396 N.am      8 UNK        -0.4313 
     33 C         -73.5173   28.0535  -75.5802 C.2       8 UNK         0.5041 
     34 O         -72.9777   28.0158  -74.4747 O.2       8 UNK        -0.5577 
     35 CA        -75.0440   28.2005  -75.6585 C.3       7 UNK         0.0284 
     36 CB        -75.4648   29.5318  -76.3126 C.3       7 UNK        -0.1958 
     37 N         -75.7169   27.0567  -76.2796 N.am      7 UNK        -0.4454 
     38 C         -75.6578   26.6235  -77.5468 C.2       7 UNK         0.5089 
     39 O         -74.9812   27.1557  -78.4290 O.2       7 UNK        -0.5125 
     40 CA        -76.5466   25.4084  -77.8777 C.3       6 UNK         0.0408 
     41 CB        -76.0873   24.6302  -79.1286 C.3       6 UNK        -0.1791 
     42 N         -76.7698   24.5265  -76.7198 N.am      6 UNK        -0.4762 
     43 C         -75.8526   23.7584  -76.1058 C.2       6 UNK         0.5007 
     44 O         -74.7182   23.5773  -76.5496 O.2       6 UNK        -0.5032 
     45 CA        -76.2252   23.1086  -74.7532 C.3       5 UNK         0.0783 
     46 C46       -75.1880   23.4255  -73.6325 C.3       11 UNK        -0.0857 
     47 S47       -74.9011   25.2064  -73.3435 S.3       11 UNK        -0.2512 
     48 C48       -75.8242   25.5328  -71.8135 C.3       11 UNK         0.0225 
     49 N         -77.6075   23.3736  -74.3290 N.am      5 UNK        -0.4615 
     50 C         -78.2712   22.5908  -73.4679 C.2       4 UNK         0.5053 
     51 O         -77.8168   21.5458  -73.0013 O.2       4 UNK        -0.5105 
     52 CA        -79.6723   23.0477  -73.0465 C.3       4 UNK         0.0263 
     53 CB        -79.6249   24.3902  -72.2969 C.3       4 UNK        -0.1981 
     54 N         -80.5631   23.1418  -74.2022 N.am      4 UNK        -0.4224 
     55 C         -81.3434   22.1404  -74.6366 C.2       3 UNK         0.4895 
     56 O         -81.3908   21.0317  -74.1022 O.2       3 UNK        -0.5091 
     57 CA        -82.2469   22.4073  -75.8545 C.3       3 UNK         0.0250 
     58 CB        -83.7111   22.5697  -75.4128 C.3       3 UNK        -0.1996 
     59 N         -81.8417   23.5885  -76.6193 N.am      3 UNK        -0.4254 
     60 C         -80.8849   23.5801  -77.5584 C.2       2 UNK         0.5004 
     61 O         -80.2863   22.5657  -77.9160 O.2       2 UNK        -0.5226 
     62 CA        -80.5074   24.9316  -78.1918 C.3       2 UNK         0.0269 
     63 CB        -81.3191   25.1679  -79.4752 C.3       2 UNK        -0.1926 
     64 N         -80.6749   26.0826  -77.2954 N.am      2 UNK        -0.4687 
     65 C         -80.0586   26.2415  -76.1162 C.2       1 UNK         0.5165 
     66 O         -79.2209   25.4504  -75.6682 O.2       1 UNK        -0.5079 
     67 H67       -82.5009   26.3635  -71.9344 H         1 UNK         0.0900 
     68 H68       -83.0494   24.8402  -72.6432 H         1 UNK         0.0900 
     69 H69       -84.0653   26.2804  -72.7440 H         1 UNK         0.0900 
     70 H70       -80.8455   27.2316  -73.1894 H         1 UNK         0.2959 
     71 H71       -81.1989   28.0461  -75.8284 H         1 UNK         0.1079 
     72 H72       -79.0977   29.0329  -75.7200 H         1 UNK         0.0837 
     73 H73       -78.3649   27.7690  -74.8083 H         1 UNK         0.0837 
     74 H74       -77.3362   30.1842  -74.0616 H         1 UNK         0.0685 
     75 H75       -77.9483   31.0107  -72.6574 H         1 UNK         0.0685 
     76 H76       -77.5148   27.2474  -72.9905 H         1 UNK         0.1434 
     77 H77       -74.3436   27.1217  -70.1388 H         1 UNK         0.1329 
     78 H78       -76.0785   30.8877  -71.2210 H         1 UNK         0.1335 
     79 H79       -74.6396   30.7234  -69.2367 H         1 UNK         0.0680 
     80 H80       -74.0917   29.1660  -68.6814 H         1 UNK         0.0680 
     81 H81       -72.0844   32.2138  -71.2945 H         1 UNK         0.1032 
     82 H82       -73.7941   31.9688  -71.1223 H         1 UNK         0.1032 
     83 H83       -73.7460   30.2787  -72.9756 H         1 UNK         0.0461 
     84 H84       -73.3067   32.9717  -75.7116 H         1 UNK         0.3453 
     85 H85       -72.2816   31.5817  -75.4446 H         1 UNK         0.3453 
     86 H86       -71.9419   29.3836  -73.7463 H         1 UNK         0.2984 
     87 H87       -68.8190   30.5863  -74.7877 H         1 UNK         0.0554 
     88 H88       -67.7755   28.6648  -73.6032 H         1 UNK         0.0847 
     89 H89       -69.1648   28.5483  -72.5201 H         1 UNK         0.0847 
     90 H90       -68.1205   29.9606  -72.4708 H         1 UNK         0.0847 
     91 H91       -69.9471   27.9592  -74.8040 H         1 UNK         0.3141 
     92 H92       -71.2019   28.1197  -77.9834 H         1 UNK         0.0743 
     93 H93       -71.0204   26.3577  -75.4694 H         1 UNK         0.0784 
     94 H94       -71.2418   25.8121  -77.1227 H         1 UNK         0.0784 
     95 H95       -69.7325   26.5713  -76.6567 H         1 UNK         0.0784 
     96 H96       -73.4083   27.9769  -77.5871 H         1 UNK         0.3213 
     97 H97       -75.3987   28.2246  -74.6282 H         1 UNK         0.0855 
     98 H98       -75.0617   30.3790  -75.7585 H         1 UNK         0.0814 
     99 H99       -76.5488   29.6412  -76.3267 H         1 UNK         0.0814 
    100 H100      -75.1109   29.6202  -77.3399 H         1 UNK         0.0814 
    101 H101      -76.2517   26.4857  -75.6415 H         1 UNK         0.3105 
    102 H102      -77.5164   25.8439  -78.1118 H         1 UNK         0.0547 
    103 H103      -76.1106   25.2683  -80.0126 H         1 UNK         0.0837 
    104 H104      -75.0668   24.2603  -79.0293 H         1 UNK         0.0837 
    105 H105      -76.7377   23.7786  -79.3276 H         1 UNK         0.0837 
    106 H106      -77.6919   24.6177  -76.3043 H         1 UNK         0.3020 
    107 H107      -76.1598   22.0363  -74.9531 H         1 UNK         0.1245 
    108 H108      -74.2250   22.9834  -73.8941 H         1 UNK         0.0781 
    109 H109      -75.4716   22.9475  -72.6941 H         1 UNK         0.0781 
    110 H110      -75.3272   25.0452  -70.9735 H         1 UNK         0.0836 
    111 H111      -76.8195   25.0972  -71.8865 H         1 UNK         0.0836 
    112 H112      -78.0580   24.2109  -74.6793 H         1 UNK         0.3022 
    113 H113      -80.0640   22.3060  -72.3465 H         1 UNK         0.0747 
    114 H114      -80.6114   24.6690  -71.9312 H         1 UNK         0.0793 
    115 H115      -78.9779   24.3203  -71.4221 H         1 UNK         0.0793 
    116 H116      -79.2522   25.2036  -72.9194 H         1 UNK         0.0793 
    117 H117      -80.5203   23.9952  -74.7430 H         1 UNK         0.3047 
    118 H118      -82.1891   21.5283  -76.5005 H         1 UNK         0.0822 
    119 H119      -84.3690   22.7230  -76.2684 H         1 UNK         0.0807 
    120 H120      -83.8405   23.4137  -74.7352 H         1 UNK         0.0807 
    121 H121      -84.0623   21.6783  -74.8912 H         1 UNK         0.0807 
    122 H122      -82.2774   24.4700  -76.3616 H         1 UNK         0.2946 
    123 H123      -79.4563   24.8618  -78.4691 H         1 UNK         0.1144 
    124 H124      -81.2000   24.3364  -80.1716 H         1 UNK         0.0793 
    125 H125      -80.9909   26.0696  -79.9925 H         1 UNK         0.0793 
    126 H126      -82.3851   25.2679  -79.2664 H         1 UNK         0.0793 
    127 H127      -81.3796   26.7549  -77.5643 H         1 UNK         0.2896 
@<TRIPOS>BOND
     1    1    2 1    
     2    1   67 1    
     3    1   68 1    
     4    1   69 1    
     5    2    3 2    
     6    2    4 am   BACKBONE|DICT|INTERRES
     7    4    5 1    
     8    4   70 1    
     9    5    6 1    
    10    5   65 1    
    11    5   71 1    
    12    6    7 1    
    13    6   72 1    
    14    6   73 1    
    15    7    8 1    
    16    8    9 1    
    17    8   74 1    
    18    8   75 1    
    19    9   10 ar   
    20    9   14 ar   
    21   10   11 ar   
    22   10   76 1    
    23   11   12 ar   
    24   11   48 1    
    25   12   13 ar   
    26   12   77 1    
    27   13   14 ar   
    28   13   15 1    
    29   14   78 1    
    30   15   16 1    
    31   15   79 1    
    32   15   80 1    
    33   16   17 1    
    34   17   18 1    
    35   17   81 1    
    36   17   82 1    
    37   18   19 1    
    38   18   22 1    
    39   18   83 1    
    40   19   20 am   BACKBONE|DICT|INTERRES
    41   19   21 2    
    42   20   84 1    
    43   20   85 1    
    44   22   23 am   BACKBONE|DICT|INTERRES
    45   22   86 1    
    46   23   24 2    
    47   23   25 1    
    48   25   26 1    
    49   25   27 1    
    50   25   87 1    
    51   26   88 1    
    52   26   89 1    
    53   26   90 1    
    54   27   28 am   BACKBONE|DICT|INTERRES
    55   27   91 1    
    56   28   29 2    
    57   28   30 1    
    58   30   31 1    
    59   30   32 1    
    60   30   92 1    
    61   31   93 1    
    62   31   94 1    
    63   31   95 1    
    64   32   33 am   BACKBONE|DICT|INTERRES
    65   32   96 1    
    66   33   34 2    
    67   33   35 1    
    68   35   36 1    
    69   35   37 1    
    70   35   97 1    
    71   36   98 1    
    72   36   99 1    
    73   36  100 1    
    74   37   38 am   BACKBONE|DICT|INTERRES
    75   37  101 1    
    76   38   39 2    
    77   38   40 1    
    78   40   41 1    
    79   40   42 1    
    80   40  102 1    
    81   41  103 1    
    82   41  104 1    
    83   41  105 1    
    84   42   43 am   BACKBONE|DICT|INTERRES
    85   42  106 1    
    86   43   44 2    
    87   43   45 1    
    88   45   46 1    
    89   45   49 1    
    90   45  107 1    
    91   46   47 1    
    92   46  108 1    
    93   46  109 1    
    94   47   48 1    
    95   48  110 1    
    96   48  111 1    
    97   49   50 am   BACKBONE|DICT|INTERRES
    98   49  112 1    
    99   50   51 2    
   100   50   52 1    
   101   52   53 1    
   102   52   54 1    
   103   52  113 1    
   104   53  114 1    
   105   53  115 1    
   106   53  116 1    
   107   54   55 am   BACKBONE|DICT|INTERRES
   108   54  117 1    
   109   55   56 2    
   110   55   57 1    
   111   57   58 1    
   112   57   59 1    
   113   57  118 1    
   114   58  119 1    
   115   58  120 1    
   116   58  121 1    
   117   59   60 am   BACKBONE|DICT|INTERRES
   118   59  122 1    
   119   60   61 2    
   120   60   62 1    
   121   62   63 1    
   122   62   64 1    
   123   62  123 1    
   124   63  124 1    
   125   63  125 1    
   126   63  126 1    
   127   64   65 am   BACKBONE|DICT|INTERRES
   128   64  127 1    
   129   65   66 2    
@<TRIPOS>SUBSTRUCTURE
     1 UNK         1 GROUP             0       ****    0 ROOT    
