@<TRIPOS>MOLECULE
3R135
127   129    1
SMALL
USER_CHARGES


@<TRIPOS>ATOM
      1 CA        -80.5518   32.3532  -77.4570 C.3       0 UNK        -0.1998 
      2 C         -79.8210   31.0277  -77.3009 C.2       0 UNK         0.4909 
      3 O         -79.7321   30.2617  -78.2615 O.2       0 UNK        -0.5240 
      4 N         -79.2958   30.7572  -76.1001 N.am      1 UNK        -0.4739 
      5 CA        -78.6059   29.5130  -75.7459 C.3       1 UNK         0.0864 
      6 C6        -77.7450   29.6753  -74.4647 C.3       11 UNK        -0.0881 
      7 S7        -78.6399   30.3602  -73.0244 S.3       11 UNK        -0.2682 
      8 C8        -79.0069   28.8555  -72.0506 C.3       11 UNK         0.0289 
      9 C9        -77.8013   28.1634  -71.4105 C.ar      11 UNK        -0.0687 
     10 C10       -77.9144   26.8188  -71.0371 C.ar      11 UNK        -0.0823 
     11 C11       -76.8524   26.1555  -70.4130 C.ar      11 UNK        -0.0830 
     12 C12       -75.6594   26.8437  -70.1714 C.ar      11 UNK        -0.1021 
     13 C13       -75.5301   28.1855  -70.5379 C.ar      11 UNK        -0.0753 
     14 C14       -76.6041   28.8404  -71.1457 C.ar      11 UNK        -0.0933 
     15 C15       -74.2349   28.9393  -70.2858 C.3       11 UNK         0.0166 
     16 S16       -73.2390   28.9999  -71.8030 S.3       11 UNK        -0.2615 
     17 C17       -72.1478   30.4256  -71.4761 C.3       11 UNK        -0.0865 
     18 CA        -72.8032   31.8181  -71.7523 C.3       10 UNK         0.0862 
     19 C         -71.8022   33.0005  -71.5753 C.2       10 UNK         0.5551 
     20 N         -71.0170   33.0066  -70.5058 N.am      10 UNK        -0.7319 
     21 O         -71.7486   33.9356  -72.3728 O.2       10 UNK        -0.5018 
     22 N         -73.5685   31.8917  -73.0112 N.am      10 UNK        -0.4509 
     23 C         -73.1059   31.6334  -74.2391 C.2       10 UNK         0.4899 
     24 O         -71.9621   31.2480  -74.4936 O.2       10 UNK        -0.4839 
     25 CA        -74.0965   31.8284  -75.3901 C.3       9 UNK         0.0222 
     26 CB        -73.8023   33.1347  -76.1523 C.3       9 UNK        -0.1966 
     27 N         -73.9763   30.6692  -76.2672 N.am      9 UNK        -0.4218 
     28 C         -74.8288   30.3069  -77.2327 C.2       9 UNK         0.5020 
     29 O         -75.8367   30.9431  -77.5399 O.2       9 UNK        -0.5274 
     30 CA        -74.5074   28.9922  -77.9615 C.3       8 UNK         0.0270 
     31 CB        -73.3442   29.1793  -78.9504 C.3       8 UNK        -0.1976 
     32 N         -74.1869   27.9238  -77.0109 N.am      8 UNK        -0.4313 
     33 C         -75.1110   27.2264  -76.3400 C.2       8 UNK         0.5041 
     34 O         -76.3240   27.3229  -76.5324 O.2       8 UNK        -0.5577 
     35 CA        -74.6089   26.2594  -75.2680 C.3       7 UNK         0.0284 
     36 CB        -75.2459   26.5893  -73.9079 C.3       7 UNK        -0.1958 
     37 N         -75.0014   24.9112  -75.6514 N.am      7 UNK        -0.4454 
     38 C         -74.1797   23.9653  -76.1217 C.2       7 UNK         0.5089 
     39 O         -72.9733   24.1326  -76.3096 O.2       7 UNK        -0.5125 
     40 CA        -74.8313   22.5986  -76.4110 C.3       6 UNK         0.0408 
     41 CB        -73.8133   21.4519  -76.5829 C.3       6 UNK        -0.1791 
     42 N         -75.8527   22.2774  -75.4085 N.am      6 UNK        -0.4762 
     43 C         -75.6810   22.0666  -74.0928 C.2       6 UNK         0.5007 
     44 O         -74.5830   21.8983  -73.5618 O.2       6 UNK        -0.5032 
     45 CA        -76.9587   22.0696  -73.2213 C.3       5 UNK         0.0783 
     46 C46       -77.1317   23.4206  -72.4766 C.3       11 UNK        -0.0857 
     47 S47       -76.0655   23.5525  -71.0034 S.3       11 UNK        -0.2512 
     48 C48       -77.0019   24.7103  -69.9559 C.3       11 UNK         0.0225 
     49 N         -78.1488   21.7675  -74.0231 N.am      5 UNK        -0.4615 
     50 C         -78.5422   20.5352  -74.3717 C.2       4 UNK         0.5053 
     51 O         -78.0063   19.5040  -73.9664 O.2       4 UNK        -0.5105 
     52 CA        -79.7237   20.4391  -75.3544 C.3       4 UNK         0.0263 
     53 CB        -81.0559   20.3822  -74.5897 C.3       4 UNK        -0.1981 
     54 N         -79.7591   21.5488  -76.3130 N.am      4 UNK        -0.4224 
     55 C         -78.8646   21.7381  -77.2953 C.2       3 UNK         0.4895 
     56 O         -77.9507   20.9546  -77.5489 O.2       3 UNK        -0.5091 
     57 CA        -78.9805   23.0396  -78.1089 C.3       3 UNK         0.0250 
     58 CB        -79.8056   22.8053  -79.3844 C.3       3 UNK        -0.1996 
     59 N         -79.5579   24.1559  -77.3517 N.am      3 UNK        -0.4254 
     60 C         -78.9767   24.7412  -76.2960 C.2       2 UNK         0.5004 
     61 O         -77.8805   24.4068  -75.8393 O.2       2 UNK        -0.5226 
     62 CA        -79.7698   25.8490  -75.6027 C.3       2 UNK         0.0269 
     63 CB        -80.0116   25.5064  -74.1205 C.3       2 UNK        -0.1926 
     64 N         -79.0332   27.1022  -75.7225 N.am      2 UNK        -0.4687 
     65 C         -79.5784   28.3194  -75.6290 C.2       1 UNK         0.5165 
     66 O         -80.7808   28.5115  -75.4229 O.2       1 UNK        -0.5079 
     67 H67       -81.5884   32.1784  -77.7439 H         1 UNK         0.0900 
     68 H68       -80.0787   32.9530  -78.2341 H         1 UNK         0.0900 
     69 H69       -80.5486   32.9317  -76.5333 H         1 UNK         0.0900 
     70 H70       -79.4293   31.4019  -75.3341 H         1 UNK         0.2959 
     71 H71       -77.9299   29.2877  -76.5732 H         1 UNK         0.1079 
     72 H72       -77.2712   28.7321  -74.1902 H         1 UNK         0.0837 
     73 H73       -76.9185   30.3516  -74.6822 H         1 UNK         0.0837 
     74 H74       -79.6995   29.1301  -71.2543 H         1 UNK         0.0685 
     75 H75       -79.5407   28.1521  -72.6892 H         1 UNK         0.0685 
     76 H76       -78.8414   26.2914  -71.2153 H         1 UNK         0.1434 
     77 H77       -74.8331   26.3333  -69.6956 H         1 UNK         0.1329 
     78 H78       -76.4931   29.8814  -71.4128 H         1 UNK         0.1335 
     79 H79       -74.4645   29.9509  -69.9487 H         1 UNK         0.0680 
     80 H80       -73.6570   28.4681  -69.4894 H         1 UNK         0.0680 
     81 H81       -71.2561   30.3026  -72.0931 H         1 UNK         0.1032 
     82 H82       -71.8029   30.3581  -70.4434 H         1 UNK         0.1032 
     83 H83       -73.5542   31.9780  -70.9782 H         1 UNK         0.0461 
     84 H84       -70.3768   33.7750  -70.3780 H         1 UNK         0.3453 
     85 H85       -71.0574   32.2730  -69.8164 H         1 UNK         0.3453 
     86 H86       -74.5149   32.2296  -72.9161 H         1 UNK         0.2984 
     87 H87       -75.1120   31.8649  -74.9918 H         1 UNK         0.0554 
     88 H88       -74.5297   33.3102  -76.9449 H         1 UNK         0.0847 
     89 H89       -72.8101   33.1208  -76.6050 H         1 UNK         0.0847 
     90 H90       -73.8429   33.9942  -75.4818 H         1 UNK         0.0847 
     91 H91       -73.1679   30.0921  -76.0743 H         1 UNK         0.3141 
     92 H92       -75.3910   28.7029  -78.5355 H         1 UNK         0.0743 
     93 H93       -72.4166   29.4541  -78.4467 H         1 UNK         0.0784 
     94 H94       -73.1591   28.2677  -79.5190 H         1 UNK         0.0784 
     95 H95       -73.5697   29.9678  -79.6699 H         1 UNK         0.0784 
     96 H96       -73.2098   27.7530  -76.8199 H         1 UNK         0.3213 
     97 H97       -73.5242   26.3410  -75.1710 H         1 UNK         0.0855 
     98 H98       -76.3295   26.4655  -73.9226 H         1 UNK         0.0814 
     99 H99       -75.0461   27.6220  -73.6234 H         1 UNK         0.0814 
    100 H100      -74.8500   25.9520  -73.1169 H         1 UNK         0.0814 
    101 H101      -76.0006   24.7176  -75.6267 H         1 UNK         0.3105 
    102 H102      -75.3638   22.7092  -77.3568 H         1 UNK         0.0547 
    103 H103      -73.1580   21.6404  -77.4339 H         1 UNK         0.0837 
    104 H104      -73.1759   21.3353  -75.7064 H         1 UNK         0.0837 
    105 H105      -74.3148   20.5015  -76.7644 H         1 UNK         0.0837 
    106 H106      -76.8038   22.4215  -75.7206 H         1 UNK         0.3020 
    107 H107      -76.8423   21.2770  -72.4780 H         1 UNK         0.1245 
    108 H108      -78.1651   23.5229  -72.1419 H         1 UNK         0.0781 
    109 H109      -76.9459   24.2699  -73.1357 H         1 UNK         0.0781 
    110 H110      -76.6341   24.6247  -68.9323 H         1 UNK         0.0836 
    111 H111      -78.0514   24.4144  -69.9208 H         1 UNK         0.0836 
    112 H112      -78.6336   22.5614  -74.4149 H         1 UNK         0.3022 
    113 H113      -79.6112   19.5092  -75.9163 H         1 UNK         0.0747 
    114 H114      -81.8972   20.2386  -75.2681 H         1 UNK         0.0793 
    115 H115      -81.0651   19.5493  -73.8851 H         1 UNK         0.0793 
    116 H116      -81.2358   21.2938  -74.0183 H         1 UNK         0.0793 
    117 H117      -80.4937   22.2314  -76.1963 H         1 UNK         0.3047 
    118 H118      -77.9692   23.3279  -78.4048 H         1 UNK         0.0822 
    119 H119      -79.8217   23.6938  -80.0158 H         1 UNK         0.0807 
    120 H120      -80.8376   22.5353  -79.1562 H         1 UNK         0.0807 
    121 H121      -79.3813   21.9956  -79.9801 H         1 UNK         0.0807 
    122 H122      -80.4560   24.4948  -77.6667 H         1 UNK         0.2946 
    123 H123      -80.7375   25.9541  -76.0989 H         1 UNK         0.1144 
    124 H124      -80.4711   24.5233  -74.0111 H         1 UNK         0.0793 
    125 H125      -80.6818   26.2264  -73.6516 H         1 UNK         0.0793 
    126 H126      -79.0791   25.5000  -73.5566 H         1 UNK         0.0793 
    127 H127      -78.0391   27.0190  -75.9446 H         1 UNK         0.2896 
@<TRIPOS>BOND
     1    1    2 1    
     2    1   67 1    
     3    1   68 1    
     4    1   69 1    
     5    2    3 2    
     6    2    4 am   BACKBONE|DICT|INTERRES
     7    4    5 1    
     8    4   70 1    
     9    5    6 1    
    10    5   65 1    
    11    5   71 1    
    12    6    7 1    
    13    6   72 1    
    14    6   73 1    
    15    7    8 1    
    16    8    9 1    
    17    8   74 1    
    18    8   75 1    
    19    9   10 ar   
    20    9   14 ar   
    21   10   11 ar   
    22   10   76 1    
    23   11   12 ar   
    24   11   48 1    
    25   12   13 ar   
    26   12   77 1    
    27   13   14 ar   
    28   13   15 1    
    29   14   78 1    
    30   15   16 1    
    31   15   79 1    
    32   15   80 1    
    33   16   17 1    
    34   17   18 1    
    35   17   81 1    
    36   17   82 1    
    37   18   19 1    
    38   18   22 1    
    39   18   83 1    
    40   19   20 am   BACKBONE|DICT|INTERRES
    41   19   21 2    
    42   20   84 1    
    43   20   85 1    
    44   22   23 am   BACKBONE|DICT|INTERRES
    45   22   86 1    
    46   23   24 2    
    47   23   25 1    
    48   25   26 1    
    49   25   27 1    
    50   25   87 1    
    51   26   88 1    
    52   26   89 1    
    53   26   90 1    
    54   27   28 am   BACKBONE|DICT|INTERRES
    55   27   91 1    
    56   28   29 2    
    57   28   30 1    
    58   30   31 1    
    59   30   32 1    
    60   30   92 1    
    61   31   93 1    
    62   31   94 1    
    63   31   95 1    
    64   32   33 am   BACKBONE|DICT|INTERRES
    65   32   96 1    
    66   33   34 2    
    67   33   35 1    
    68   35   36 1    
    69   35   37 1    
    70   35   97 1    
    71   36   98 1    
    72   36   99 1    
    73   36  100 1    
    74   37   38 am   BACKBONE|DICT|INTERRES
    75   37  101 1    
    76   38   39 2    
    77   38   40 1    
    78   40   41 1    
    79   40   42 1    
    80   40  102 1    
    81   41  103 1    
    82   41  104 1    
    83   41  105 1    
    84   42   43 am   BACKBONE|DICT|INTERRES
    85   42  106 1    
    86   43   44 2    
    87   43   45 1    
    88   45   46 1    
    89   45   49 1    
    90   45  107 1    
    91   46   47 1    
    92   46  108 1    
    93   46  109 1    
    94   47   48 1    
    95   48  110 1    
    96   48  111 1    
    97   49   50 am   BACKBONE|DICT|INTERRES
    98   49  112 1    
    99   50   51 2    
   100   50   52 1    
   101   52   53 1    
   102   52   54 1    
   103   52  113 1    
   104   53  114 1    
   105   53  115 1    
   106   53  116 1    
   107   54   55 am   BACKBONE|DICT|INTERRES
   108   54  117 1    
   109   55   56 2    
   110   55   57 1    
   111   57   58 1    
   112   57   59 1    
   113   57  118 1    
   114   58  119 1    
   115   58  120 1    
   116   58  121 1    
   117   59   60 am   BACKBONE|DICT|INTERRES
   118   59  122 1    
   119   60   61 2    
   120   60   62 1    
   121   62   63 1    
   122   62   64 1    
   123   62  123 1    
   124   63  124 1    
   125   63  125 1    
   126   63  126 1    
   127   64   65 am   BACKBONE|DICT|INTERRES
   128   64  127 1    
   129   65   66 2    
@<TRIPOS>SUBSTRUCTURE
     1 UNK         1 GROUP             0       ****    0 ROOT    
