@<TRIPOS>MOLECULE
3R135
127   129    1
SMALL
USER_CHARGES


@<TRIPOS>ATOM
      1 CA        -77.6820   30.9750  -75.8557 C.3       0 UNK        -0.1998 
      2 C         -77.6164   29.5264  -75.3998 C.2       0 UNK         0.4909 
      3 O         -76.5411   28.9256  -75.4242 O.2       0 UNK        -0.5240 
      4 N         -78.7592   28.9691  -74.9798 N.am      1 UNK        -0.4739 
      5 CA        -78.8910   27.5974  -74.4757 C.3       1 UNK         0.0864 
      6 C6        -80.2427   27.3600  -73.7486 C.3       11 UNK        -0.0881 
      7 S7        -80.6720   28.6474  -72.5265 S.3       11 UNK        -0.2682 
      8 C8        -79.9526   27.9830  -70.9875 C.3       11 UNK         0.0289 
      9 C9        -78.4293   27.9298  -71.0175 C.ar      11 UNK        -0.0687 
     10 C10       -77.7623   26.7630  -70.6320 C.ar      11 UNK        -0.0823 
     11 C11       -76.3653   26.6966  -70.6656 C.ar      11 UNK        -0.0830 
     12 C12       -75.6368   27.8103  -71.0915 C.ar      11 UNK        -0.1021 
     13 C13       -76.2886   28.9877  -71.4698 C.ar      11 UNK        -0.0753 
     14 C14       -77.6834   29.0446  -71.4172 C.ar      11 UNK        -0.0933 
     15 C15       -75.4916   30.1909  -71.9531 C.3       11 UNK         0.0166 
     16 S16       -74.3491   30.8022  -70.6745 S.3       11 UNK        -0.2615 
     17 C17       -73.8499   32.4218  -71.3601 C.3       11 UNK        -0.0865 
     18 CA        -72.6200   32.3926  -72.3147 C.3       10 UNK         0.0862 
     19 C         -71.3236   31.8585  -71.6491 C.2       10 UNK         0.5551 
     20 N         -70.7981   32.5692  -70.6602 N.am      10 UNK        -0.7319 
     21 O         -70.7901   30.8121  -72.0134 O.2       10 UNK        -0.5018 
     22 N         -72.9006   31.7074  -73.5809 N.am      10 UNK        -0.4509 
     23 C         -73.6715   32.1805  -74.5639 C.2       10 UNK         0.4899 
     24 O         -74.2498   33.2660  -74.5075 O.2       10 UNK        -0.4839 
     25 CA        -73.8676   31.3131  -75.8202 C.3       9 UNK         0.0222 
     26 CB        -72.9157   31.7476  -76.9519 C.3       9 UNK        -0.1966 
     27 N         -73.8241   29.8602  -75.5994 N.am      9 UNK        -0.4218 
     28 C         -72.7682   29.0835  -75.3122 C.2       9 UNK         0.5020 
     29 O         -71.6383   29.5175  -75.0888 O.2       9 UNK        -0.5274 
     30 CA        -73.0056   27.5628  -75.2564 C.3       8 UNK         0.0270 
     31 CB        -73.2129   27.1025  -73.8069 C.3       8 UNK        -0.1976 
     32 N         -74.1427   27.1143  -76.0631 N.am      8 UNK        -0.4313 
     33 C         -74.2101   27.1682  -77.3990 C.2       8 UNK         0.5041 
     34 O         -73.2865   27.5476  -78.1220 O.2       8 UNK        -0.5577 
     35 CA        -75.5465   26.7128  -78.0070 C.3       7 UNK         0.0284 
     36 CB        -75.6555   26.9976  -79.5218 C.3       7 UNK        -0.1958 
     37 N         -75.8241   25.3048  -77.6954 N.am      7 UNK        -0.4454 
     38 C         -75.1416   24.2278  -78.1137 C.2       7 UNK         0.5089 
     39 O         -74.1714   24.2715  -78.8720 O.2       7 UNK        -0.5125 
     40 CA        -75.6460   22.8655  -77.5951 C.3       6 UNK         0.0408 
     41 CB        -74.6227   21.7279  -77.8019 C.3       6 UNK        -0.1791 
     42 N         -76.1021   22.9053  -76.1992 N.am      6 UNK        -0.4762 
     43 C         -75.3710   23.2286  -75.1197 C.2       6 UNK         0.5007 
     44 O         -74.1912   23.5765  -75.1776 O.2       6 UNK        -0.5032 
     45 CA        -76.0635   23.1315  -73.7470 C.3       5 UNK         0.0783 
     46 C46       -75.5707   24.2203  -72.7557 C.3       11 UNK        -0.0857 
     47 S47       -76.1954   23.9369  -71.0657 S.3       11 UNK        -0.2512 
     48 C48       -75.6350   25.4404  -70.2068 C.3       11 UNK         0.0225 
     49 N         -77.5252   23.1454  -73.8852 N.am      5 UNK        -0.4615 
     50 C         -78.3409   22.2310  -73.3465 C.2       4 UNK         0.5053 
     51 O         -77.9590   21.1710  -72.8494 O.2       4 UNK        -0.5105 
     52 CA        -79.8350   22.5761  -73.3109 C.3       4 UNK         0.0263 
     53 CB        -80.1127   23.5919  -72.1890 C.3       4 UNK        -0.1981 
     54 N         -80.3386   23.0906  -74.5858 N.am      4 UNK        -0.4224 
     55 C         -80.6809   22.3092  -75.6198 C.2       3 UNK         0.4895 
     56 O         -80.5098   21.0901  -75.6459 O.2       3 UNK        -0.5091 
     57 CA        -81.3694   22.9933  -76.8117 C.3       3 UNK         0.0250 
     58 CB        -82.8850   23.0900  -76.5707 C.3       3 UNK        -0.1996 
     59 N         -80.8380   24.3281  -77.0926 N.am      3 UNK        -0.4254 
     60 C         -79.7005   24.5472  -77.7636 C.2       2 UNK         0.5004 
     61 O         -78.9694   23.6558  -78.1930 O.2       2 UNK        -0.5226 
     62 CA        -79.3024   26.0157  -77.9747 C.3       2 UNK         0.0269 
     63 CB        -80.1783   26.6720  -79.0541 C.3       2 UNK        -0.1926 
     64 N         -79.3366   26.8278  -76.7539 N.am      2 UNK        -0.4687 
     65 C         -78.7035   26.5615  -75.6003 C.2       1 UNK         0.5165 
     66 O         -77.9973   25.5686  -75.4125 O.2       1 UNK        -0.5079 
     67 H67       -78.7064   31.3455  -75.8876 H         1 UNK         0.0900 
     68 H68       -77.2566   31.0742  -76.8538 H         1 UNK         0.0900 
     69 H69       -77.1147   31.6075  -75.1734 H         1 UNK         0.0900 
     70 H70       -79.6022   29.5250  -74.9489 H         1 UNK         0.2959 
     71 H71       -78.0821   27.4312  -73.7612 H         1 UNK         0.1079 
     72 H72       -81.0639   27.3291  -74.4676 H         1 UNK         0.0837 
     73 H73       -80.2469   26.3904  -73.2528 H         1 UNK         0.0837 
     74 H74       -80.2612   28.6169  -70.1554 H         1 UNK         0.0685 
     75 H75       -80.3761   26.9954  -70.7975 H         1 UNK         0.0685 
     76 H76       -78.3278   25.9021  -70.3023 H         1 UNK         0.1434 
     77 H77       -74.5564   27.7720  -71.1134 H         1 UNK         0.1329 
     78 H78       -78.1949   29.9514  -71.7092 H         1 UNK         0.1335 
     79 H79       -76.1607   30.9971  -72.2577 H         1 UNK         0.0680 
     80 H80       -74.9260   29.9040  -72.8395 H         1 UNK         0.0680 
     81 H81       -73.6393   33.0802  -70.5160 H         1 UNK         0.1032 
     82 H82       -74.7051   32.8792  -71.8590 H         1 UNK         0.1032 
     83 H83       -72.3912   33.4268  -72.5802 H         1 UNK         0.0461 
     84 H84       -71.2201   33.4312  -70.3523 H         1 UNK         0.3453 
     85 H85       -69.9577   32.2368  -70.2136 H         1 UNK         0.3453 
     86 H86       -72.3827   30.8461  -73.7307 H         1 UNK         0.2984 
     87 H87       -74.8799   31.5126  -76.1699 H         1 UNK         0.0554 
     88 H88       -73.0929   31.1737  -77.8616 H         1 UNK         0.0847 
     89 H89       -71.8681   31.6245  -76.6759 H         1 UNK         0.0847 
     90 H90       -73.0611   32.8001  -77.1984 H         1 UNK         0.0847 
     91 H91       -74.7294   29.3970  -75.6652 H         1 UNK         0.3141 
     92 H92       -72.1066   27.0802  -75.6454 H         1 UNK         0.0743 
     93 H93       -74.1632   27.4609  -73.4142 H         1 UNK         0.0784 
     94 H94       -73.2058   26.0151  -73.7363 H         1 UNK         0.0784 
     95 H95       -72.4220   27.4751  -73.1541 H         1 UNK         0.0784 
     96 H96       -74.9640   26.8148  -75.5572 H         1 UNK         0.3213 
     97 H97       -76.3249   27.2984  -77.5170 H         1 UNK         0.0855 
     98 H98       -75.5594   28.0659  -79.7192 H         1 UNK         0.0814 
     99 H99       -76.6163   26.6796  -79.9249 H         1 UNK         0.0814 
    100 H100      -74.8729   26.4962  -80.0915 H         1 UNK         0.0814 
    101 H101      -76.5696   25.1397  -77.0280 H         1 UNK         0.3105 
    102 H102      -76.5226   22.6211  -78.1955 H         1 UNK         0.0547 
    103 H103      -74.3857   21.6028  -78.8591 H         1 UNK         0.0837 
    104 H104      -73.6851   21.9261  -77.2815 H         1 UNK         0.0837 
    105 H105      -75.0106   20.7743  -77.4445 H         1 UNK         0.0837 
    106 H106      -77.0696   22.6534  -76.0472 H         1 UNK         0.3020 
    107 H107      -75.7395   22.1654  -73.3534 H         1 UNK         0.1245 
    108 H108      -75.8784   25.2117  -73.0938 H         1 UNK         0.0781 
    109 H109      -74.4812   24.2324  -72.6963 H         1 UNK         0.0781 
    110 H110      -74.5566   25.5414  -70.3395 H         1 UNK         0.0836 
    111 H111      -75.8010   25.3135  -69.1363 H         1 UNK         0.0836 
    112 H112      -77.9102   23.9799  -74.3183 H         1 UNK         0.3022 
    113 H113      -80.3835   21.6625  -73.0697 H         1 UNK         0.0747 
    114 H114      -81.1603   23.8926  -72.1657 H         1 UNK         0.0793 
    115 H115      -79.8789   23.1594  -71.2151 H         1 UNK         0.0793 
    116 H116      -79.5000   24.4875  -72.2897 H         1 UNK         0.0793 
    117 H117      -80.5012   24.0827  -74.6554 H         1 UNK         0.3047 
    118 H118      -81.2102   22.3622  -77.6895 H         1 UNK         0.0822 
    119 H119      -83.3991   23.5003  -77.4402 H         1 UNK         0.0807 
    120 H120      -83.1220   23.7194  -75.7121 H         1 UNK         0.0807 
    121 H121      -83.3128   22.1046  -76.3798 H         1 UNK         0.0807 
    122 H122      -81.3827   25.1211  -76.7863 H         1 UNK         0.2946 
    123 H123      -78.2809   26.0162  -78.3469 H         1 UNK         0.1144 
    124 H124      -79.8157   27.6690  -79.3053 H         1 UNK         0.0793 
    125 H125      -81.2177   26.7634  -78.7368 H         1 UNK         0.0793 
    126 H126      -80.1685   26.0864  -79.9746 H         1 UNK         0.0793 
    127 H127      -79.8682   27.6850  -76.8044 H         1 UNK         0.2896 
@<TRIPOS>BOND
     1    1    2 1    
     2    1   67 1    
     3    1   68 1    
     4    1   69 1    
     5    2    3 2    
     6    2    4 am   BACKBONE|DICT|INTERRES
     7    4    5 1    
     8    4   70 1    
     9    5    6 1    
    10    5   65 1    
    11    5   71 1    
    12    6    7 1    
    13    6   72 1    
    14    6   73 1    
    15    7    8 1    
    16    8    9 1    
    17    8   74 1    
    18    8   75 1    
    19    9   10 ar   
    20    9   14 ar   
    21   10   11 ar   
    22   10   76 1    
    23   11   12 ar   
    24   11   48 1    
    25   12   13 ar   
    26   12   77 1    
    27   13   14 ar   
    28   13   15 1    
    29   14   78 1    
    30   15   16 1    
    31   15   79 1    
    32   15   80 1    
    33   16   17 1    
    34   17   18 1    
    35   17   81 1    
    36   17   82 1    
    37   18   19 1    
    38   18   22 1    
    39   18   83 1    
    40   19   20 am   BACKBONE|DICT|INTERRES
    41   19   21 2    
    42   20   84 1    
    43   20   85 1    
    44   22   23 am   BACKBONE|DICT|INTERRES
    45   22   86 1    
    46   23   24 2    
    47   23   25 1    
    48   25   26 1    
    49   25   27 1    
    50   25   87 1    
    51   26   88 1    
    52   26   89 1    
    53   26   90 1    
    54   27   28 am   BACKBONE|DICT|INTERRES
    55   27   91 1    
    56   28   29 2    
    57   28   30 1    
    58   30   31 1    
    59   30   32 1    
    60   30   92 1    
    61   31   93 1    
    62   31   94 1    
    63   31   95 1    
    64   32   33 am   BACKBONE|DICT|INTERRES
    65   32   96 1    
    66   33   34 2    
    67   33   35 1    
    68   35   36 1    
    69   35   37 1    
    70   35   97 1    
    71   36   98 1    
    72   36   99 1    
    73   36  100 1    
    74   37   38 am   BACKBONE|DICT|INTERRES
    75   37  101 1    
    76   38   39 2    
    77   38   40 1    
    78   40   41 1    
    79   40   42 1    
    80   40  102 1    
    81   41  103 1    
    82   41  104 1    
    83   41  105 1    
    84   42   43 am   BACKBONE|DICT|INTERRES
    85   42  106 1    
    86   43   44 2    
    87   43   45 1    
    88   45   46 1    
    89   45   49 1    
    90   45  107 1    
    91   46   47 1    
    92   46  108 1    
    93   46  109 1    
    94   47   48 1    
    95   48  110 1    
    96   48  111 1    
    97   49   50 am   BACKBONE|DICT|INTERRES
    98   49  112 1    
    99   50   51 2    
   100   50   52 1    
   101   52   53 1    
   102   52   54 1    
   103   52  113 1    
   104   53  114 1    
   105   53  115 1    
   106   53  116 1    
   107   54   55 am   BACKBONE|DICT|INTERRES
   108   54  117 1    
   109   55   56 2    
   110   55   57 1    
   111   57   58 1    
   112   57   59 1    
   113   57  118 1    
   114   58  119 1    
   115   58  120 1    
   116   58  121 1    
   117   59   60 am   BACKBONE|DICT|INTERRES
   118   59  122 1    
   119   60   61 2    
   120   60   62 1    
   121   62   63 1    
   122   62   64 1    
   123   62  123 1    
   124   63  124 1    
   125   63  125 1    
   126   63  126 1    
   127   64   65 am   BACKBONE|DICT|INTERRES
   128   64  127 1    
   129   65   66 2    
@<TRIPOS>SUBSTRUCTURE
     1 UNK         1 GROUP             0       ****    0 ROOT    
