@<TRIPOS>MOLECULE
3R135
127   129    1
SMALL
USER_CHARGES


@<TRIPOS>ATOM
      1 CA        -84.5318   25.7380  -69.0844 C.3       0 UNK        -0.1998 
      2 C         -84.2728   26.0462  -70.5513 C.2       0 UNK         0.4909 
      3 O         -85.1924   25.9646  -71.3661 O.2       0 UNK        -0.5240 
      4 N         -83.0282   26.4042  -70.8920 N.am      1 UNK        -0.4739 
      5 CA        -82.5760   26.6941  -72.2592 C.3       1 UNK         0.0864 
      6 C6        -81.2139   27.4374  -72.2781 C.3       11 UNK        -0.0881 
      7 S7        -79.9208   26.6482  -71.2498 S.3       11 UNK        -0.2682 
      8 C8        -79.0081   28.0939  -70.6250 C.3       11 UNK         0.0289 
      9 C9        -78.0462   28.6390  -71.6700 C.ar      11 UNK        -0.0687 
     10 C10       -78.4628   29.6182  -72.5775 C.ar      11 UNK        -0.0823 
     11 C11       -77.5786   30.1133  -73.5410 C.ar      11 UNK        -0.0830 
     12 C12       -76.2636   29.6422  -73.5731 C.ar      11 UNK        -0.1021 
     13 C13       -75.8435   28.6444  -72.6908 C.ar      11 UNK        -0.0753 
     14 C14       -76.7371   28.1519  -71.7358 C.ar      11 UNK        -0.0933 
     15 C15       -74.4474   28.0527  -72.8086 C.3       11 UNK         0.0166 
     16 S16       -73.2965   28.7089  -71.5614 S.3       11 UNK        -0.2615 
     17 C17       -73.1098   30.4645  -72.0438 C.3       11 UNK        -0.0865 
     18 CA        -72.5846   30.7206  -73.4901 C.3       10 UNK         0.0862 
     19 C         -72.4169   32.2387  -73.7993 C.2       10 UNK         0.5551 
     20 N         -71.4389   32.6461  -74.5991 N.am      10 UNK        -0.7319 
     21 O         -73.2034   33.0598  -73.3339 O.2       10 UNK        -0.5018 
     22 N         -71.4356   29.8801  -73.8650 N.am      10 UNK        -0.4509 
     23 C         -70.2307   29.8410  -73.2868 C.2       10 UNK         0.4899 
     24 O         -69.9002   30.5516  -72.3362 O.2       10 UNK        -0.4839 
     25 CA        -69.2344   28.8182  -73.8775 C.3       9 UNK         0.0222 
     26 CB        -67.8633   28.8553  -73.1761 C.3       9 UNK        -0.1966 
     27 N         -69.7477   27.4422  -73.8455 N.am      9 UNK        -0.4218 
     28 C         -70.7029   26.9448  -74.6426 C.2       9 UNK         0.5020 
     29 O         -71.2588   27.6005  -75.5291 O.2       9 UNK        -0.5274 
     30 CA        -71.1162   25.4858  -74.4051 C.3       8 UNK         0.0270 
     31 CB        -71.5906   25.2371  -72.9595 C.3       8 UNK        -0.1976 
     32 N         -72.1842   25.1554  -75.3444 N.am      8 UNK        -0.4313 
     33 C         -72.4695   23.9388  -75.8185 C.2       8 UNK         0.5041 
     34 O         -71.8850   22.9157  -75.4575 O.2       8 UNK        -0.5577 
     35 CA        -73.5925   23.8242  -76.8695 C.3       7 UNK         0.0284 
     36 CB        -74.8294   23.1435  -76.2591 C.3       7 UNK        -0.1958 
     37 N         -73.9920   25.0984  -77.4839 N.am      7 UNK        -0.4454 
     38 C         -73.2307   25.8011  -78.3391 C.2       7 UNK         0.5089 
     39 O         -72.0988   25.4498  -78.6737 O.2       7 UNK        -0.5125 
     40 CA        -73.8106   27.0939  -78.9508 C.3       6 UNK         0.0408 
     41 CB        -73.9734   26.9419  -80.4728 C.3       6 UNK        -0.1791 
     42 N         -75.0977   27.5010  -78.3840 N.am      6 UNK        -0.4762 
     43 C         -75.2688   28.1102  -77.2022 C.2       6 UNK         0.5007 
     44 O         -74.3397   28.4427  -76.4680 O.2       6 UNK        -0.5032 
     45 CA        -76.7219   28.3752  -76.7478 C.3       5 UNK         0.0783 
     46 C46       -77.0760   29.8746  -76.9139 C.3       11 UNK        -0.0857 
     47 S47       -78.6420   30.3267  -76.0906 S.3       11 UNK        -0.2512 
     48 C48       -78.0516   31.1351  -74.5646 C.3       11 UNK         0.0225 
     49 N         -77.7122   27.4966  -77.3882 N.am      5 UNK        -0.4615 
     50 C         -77.7433   26.1662  -77.2470 C.2       4 UNK         0.5053 
     51 O         -76.9010   25.5276  -76.6116 O.2       4 UNK        -0.5105 
     52 CA        -78.8593   25.4208  -77.9820 C.3       4 UNK         0.0263 
     53 CB        -78.5143   25.2423  -79.4719 C.3       4 UNK        -0.1981 
     54 N         -79.0167   24.1170  -77.3492 N.am      4 UNK        -0.4224 
     55 C         -80.1390   23.3940  -77.3122 C.2       3 UNK         0.4895 
     56 O         -81.1814   23.7186  -77.8839 O.2       3 UNK        -0.5091 
     57 CA        -80.1158   22.0845  -76.4999 C.3       3 UNK         0.0250 
     58 CB        -78.7022   21.6024  -76.0920 C.3       3 UNK        -0.1996 
     59 N         -81.0089   22.1795  -75.3385 N.am      3 UNK        -0.4254 
     60 C         -80.8977   23.0297  -74.3066 C.2       2 UNK         0.5004 
     61 O         -79.9383   23.7845  -74.1297 O.2       2 UNK        -0.5226 
     62 CA        -82.0496   23.0049  -73.2836 C.3       2 UNK         0.0269 
     63 CB        -81.8229   21.8962  -72.2424 C.3       2 UNK        -0.1926 
     64 N         -82.2031   24.2836  -72.5845 N.am      2 UNK        -0.4687 
     65 C         -82.5556   25.4418  -73.1622 C.2       1 UNK         0.5165 
     66 O         -82.8792   25.5448  -74.3470 O.2       1 UNK        -0.5079 
     67 H67       -84.8808   24.7117  -68.9729 H         1 UNK         0.0900 
     68 H68       -85.2992   26.4040  -68.6908 H         1 UNK         0.0900 
     69 H69       -83.6345   25.8588  -68.4776 H         1 UNK         0.0900 
     70 H70       -82.3084   26.4545  -70.1842 H         1 UNK         0.2959 
     71 H71       -83.3142   27.3668  -72.7026 H         1 UNK         0.1079 
     72 H72       -80.8368   27.5452  -73.2974 H         1 UNK         0.0837 
     73 H73       -81.3734   28.4546  -71.9183 H         1 UNK         0.0837 
     74 H74       -79.7031   28.8688  -70.2981 H         1 UNK         0.0685 
     75 H75       -78.4518   27.7954  -69.7351 H         1 UNK         0.0685 
     76 H76       -79.4802   29.9828  -72.5450 H         1 UNK         0.1434 
     77 H77       -75.5811   30.0173  -74.3212 H         1 UNK         0.1329 
     78 H78       -76.4162   27.3779  -71.0520 H         1 UNK         0.1335 
     79 H79       -74.5153   26.9716  -72.6825 H         1 UNK         0.0680 
     80 H80       -74.0374   28.2056  -73.8070 H         1 UNK         0.0680 
     81 H81       -72.4386   30.9299  -71.3202 H         1 UNK         0.1032 
     82 H82       -74.0761   30.9526  -71.9036 H         1 UNK         0.1032 
     83 H83       -73.3692   30.4093  -74.1768 H         1 UNK         0.0461 
     84 H84       -70.7960   31.9798  -74.9956 H         1 UNK         0.3453 
     85 H85       -71.3422   33.6283  -74.8034 H         1 UNK         0.3453 
     86 H86       -71.5960   29.2311  -74.6318 H         1 UNK         0.2984 
     87 H87       -69.0751   29.0980  -74.9211 H         1 UNK         0.0554 
     88 H88       -67.1551   28.1752  -73.6498 H         1 UNK         0.0847 
     89 H89       -67.9399   28.5819  -72.1229 H         1 UNK         0.0847 
     90 H90       -67.4273   29.8543  -73.2221 H         1 UNK         0.0847 
     91 H91       -69.3664   26.8443  -73.1265 H         1 UNK         0.3141 
     92 H92       -70.2473   24.8593  -74.6172 H         1 UNK         0.0743 
     93 H93       -72.4162   25.8939  -72.6891 H         1 UNK         0.0784 
     94 H94       -71.9263   24.2089  -72.8230 H         1 UNK         0.0784 
     95 H95       -70.7897   25.4066  -72.2396 H         1 UNK         0.0784 
     96 H96       -72.6397   25.9646  -75.7514 H         1 UNK         0.3213 
     97 H97       -73.2144   23.1786  -77.6653 H         1 UNK         0.0855 
     98 H98       -75.2490   23.7310  -75.4416 H         1 UNK         0.0814 
     99 H99       -74.5774   22.1614  -75.8567 H         1 UNK         0.0814 
    100 H100      -75.6112   22.9954  -77.0041 H         1 UNK         0.0814 
    101 H101      -74.9186   25.4409  -77.2511 H         1 UNK         0.3105 
    102 H102      -73.0851   27.8891  -78.7656 H         1 UNK         0.0547 
    103 H103      -73.0237   26.6876  -80.9456 H         1 UNK         0.0837 
    104 H104      -74.6837   26.1541  -80.7266 H         1 UNK         0.0837 
    105 H105      -74.3199   27.8686  -80.9304 H         1 UNK         0.0837 
    106 H106      -75.9222   27.2647  -78.9167 H         1 UNK         0.3020 
    107 H107      -76.7453   28.1277  -75.6857 H         1 UNK         0.1245 
    108 H108      -77.1640   30.1257  -77.9726 H         1 UNK         0.0781 
    109 H109      -76.2796   30.5136  -76.5280 H         1 UNK         0.0781 
    110 H110      -78.8665   31.7278  -74.1462 H         1 UNK         0.0836 
    111 H111      -77.2550   31.8437  -74.7966 H         1 UNK         0.0836 
    112 H112      -78.4352   27.9564  -77.9229 H         1 UNK         0.3022 
    113 H113      -79.7847   25.9915  -77.8775 H         1 UNK         0.0747 
    114 H114      -79.3025   24.7047  -79.9993 H         1 UNK         0.0793 
    115 H115      -78.3956   26.2061  -79.9683 H         1 UNK         0.0793 
    116 H116      -77.5849   24.6867  -79.6057 H         1 UNK         0.0793 
    117 H117      -78.2222   23.8352  -76.7876 H         1 UNK         0.3047 
    118 H118      -80.5408   21.3202  -77.1526 H         1 UNK         0.0822 
    119 H119      -78.7516   20.6371  -75.5881 H         1 UNK         0.0807 
    120 H120      -78.1969   22.2955  -75.4189 H         1 UNK         0.0807 
    121 H121      -78.0654   21.4709  -76.9679 H         1 UNK         0.0807 
    122 H122      -81.8394   21.6059  -75.3924 H         1 UNK         0.2946 
    123 H123      -82.9813   22.8051  -73.8179 H         1 UNK         0.1144 
    124 H124      -82.6516   21.8380  -71.5364 H         1 UNK         0.0793 
    125 H125      -80.9067   22.0607  -71.6734 H         1 UNK         0.0793 
    126 H126      -81.7378   20.9193  -72.7203 H         1 UNK         0.0793 
    127 H127      -81.9229   24.3099  -71.6152 H         1 UNK         0.2896 
@<TRIPOS>BOND
     1    1    2 1    
     2    1   67 1    
     3    1   68 1    
     4    1   69 1    
     5    2    3 2    
     6    2    4 am   BACKBONE|DICT|INTERRES
     7    4    5 1    
     8    4   70 1    
     9    5    6 1    
    10    5   65 1    
    11    5   71 1    
    12    6    7 1    
    13    6   72 1    
    14    6   73 1    
    15    7    8 1    
    16    8    9 1    
    17    8   74 1    
    18    8   75 1    
    19    9   10 ar   
    20    9   14 ar   
    21   10   11 ar   
    22   10   76 1    
    23   11   12 ar   
    24   11   48 1    
    25   12   13 ar   
    26   12   77 1    
    27   13   14 ar   
    28   13   15 1    
    29   14   78 1    
    30   15   16 1    
    31   15   79 1    
    32   15   80 1    
    33   16   17 1    
    34   17   18 1    
    35   17   81 1    
    36   17   82 1    
    37   18   19 1    
    38   18   22 1    
    39   18   83 1    
    40   19   20 am   BACKBONE|DICT|INTERRES
    41   19   21 2    
    42   20   84 1    
    43   20   85 1    
    44   22   23 am   BACKBONE|DICT|INTERRES
    45   22   86 1    
    46   23   24 2    
    47   23   25 1    
    48   25   26 1    
    49   25   27 1    
    50   25   87 1    
    51   26   88 1    
    52   26   89 1    
    53   26   90 1    
    54   27   28 am   BACKBONE|DICT|INTERRES
    55   27   91 1    
    56   28   29 2    
    57   28   30 1    
    58   30   31 1    
    59   30   32 1    
    60   30   92 1    
    61   31   93 1    
    62   31   94 1    
    63   31   95 1    
    64   32   33 am   BACKBONE|DICT|INTERRES
    65   32   96 1    
    66   33   34 2    
    67   33   35 1    
    68   35   36 1    
    69   35   37 1    
    70   35   97 1    
    71   36   98 1    
    72   36   99 1    
    73   36  100 1    
    74   37   38 am   BACKBONE|DICT|INTERRES
    75   37  101 1    
    76   38   39 2    
    77   38   40 1    
    78   40   41 1    
    79   40   42 1    
    80   40  102 1    
    81   41  103 1    
    82   41  104 1    
    83   41  105 1    
    84   42   43 am   BACKBONE|DICT|INTERRES
    85   42  106 1    
    86   43   44 2    
    87   43   45 1    
    88   45   46 1    
    89   45   49 1    
    90   45  107 1    
    91   46   47 1    
    92   46  108 1    
    93   46  109 1    
    94   47   48 1    
    95   48  110 1    
    96   48  111 1    
    97   49   50 am   BACKBONE|DICT|INTERRES
    98   49  112 1    
    99   50   51 2    
   100   50   52 1    
   101   52   53 1    
   102   52   54 1    
   103   52  113 1    
   104   53  114 1    
   105   53  115 1    
   106   53  116 1    
   107   54   55 am   BACKBONE|DICT|INTERRES
   108   54  117 1    
   109   55   56 2    
   110   55   57 1    
   111   57   58 1    
   112   57   59 1    
   113   57  118 1    
   114   58  119 1    
   115   58  120 1    
   116   58  121 1    
   117   59   60 am   BACKBONE|DICT|INTERRES
   118   59  122 1    
   119   60   61 2    
   120   60   62 1    
   121   62   63 1    
   122   62   64 1    
   123   62  123 1    
   124   63  124 1    
   125   63  125 1    
   126   63  126 1    
   127   64   65 am   BACKBONE|DICT|INTERRES
   128   64  127 1    
   129   65   66 2    
@<TRIPOS>SUBSTRUCTURE
     1 UNK         1 GROUP             0       ****    0 ROOT    
