@<TRIPOS>MOLECULE
3R135
127   129    1
SMALL
USER_CHARGES


@<TRIPOS>ATOM
      1 CA        -84.0057   24.0641  -72.4136 C.3       0 UNK        -0.1998 
      2 C         -83.8349   25.0282  -73.5784 C.2       0 UNK         0.4909 
      3 O         -84.6681   25.0455  -74.4856 O.2       0 UNK        -0.5240 
      4 N         -82.7667   25.8342  -73.5509 N.am      1 UNK        -0.4739 
      5 CA        -82.3793   26.7647  -74.6158 C.3       1 UNK         0.0864 
      6 C6        -81.7030   28.0341  -74.0311 C.3       11 UNK        -0.0881 
      7 S7        -80.1215   27.7119  -73.1817 S.3       11 UNK        -0.2682 
      8 C8        -79.9980   29.1988  -72.1337 C.3       11 UNK         0.0289 
      9 C9        -78.5970   29.3402  -71.5593 C.ar      11 UNK        -0.0687 
     10 C10       -78.0961   28.3531  -70.7092 C.ar      11 UNK        -0.0823 
     11 C11       -76.7707   28.3974  -70.2724 C.ar      11 UNK        -0.0830 
     12 C12       -75.9742   29.4948  -70.6057 C.ar      11 UNK        -0.1021 
     13 C13       -76.4743   30.5122  -71.4241 C.ar      11 UNK        -0.0753 
     14 C14       -77.7847   30.4248  -71.9066 C.ar      11 UNK        -0.0933 
     15 C15       -75.5948   31.6951  -71.8028 C.3       11 UNK         0.0166 
     16 S16       -74.5424   31.3186  -73.2404 S.3       11 UNK        -0.2615 
     17 C17       -73.2668   30.2450  -72.4915 C.3       11 UNK        -0.0865 
     18 CA        -71.8738   30.4215  -73.1487 C.3       10 UNK         0.0862 
     19 C         -70.7725   29.6572  -72.3513 C.2       10 UNK         0.5551 
     20 N         -70.0071   28.7492  -72.9469 N.am      10 UNK        -0.7319 
     21 O         -70.6036   29.9022  -71.1594 O.2       10 UNK        -0.5018 
     22 N         -71.9232   30.1021  -74.5813 N.am      10 UNK        -0.4509 
     23 C         -71.0362   30.5022  -75.4986 C.2       10 UNK         0.4899 
     24 O         -70.1076   31.2790  -75.2702 O.2       10 UNK        -0.4839 
     25 CA        -71.2209   29.8919  -76.8994 C.3       9 UNK         0.0222 
     26 CB        -70.0067   30.1124  -77.8266 C.3       9 UNK        -0.1966 
     27 N         -71.5885   28.4708  -76.8292 N.am      9 UNK        -0.4218 
     28 C         -70.8663   27.4619  -76.3120 C.2       9 UNK         0.5020 
     29 O         -69.7414   27.6139  -75.8334 O.2       9 UNK        -0.5274 
     30 CA        -71.5036   26.0547  -76.2681 C.3       8 UNK         0.0270 
     31 CB        -71.3779   25.4404  -74.8621 C.3       8 UNK        -0.1976 
     32 N         -72.9138   26.0353  -76.6700 N.am      8 UNK        -0.4313 
     33 C         -73.3508   26.1107  -77.9361 C.2       8 UNK         0.5041 
     34 O         -72.5996   26.0878  -78.9114 O.2       8 UNK        -0.5577 
     35 CA        -74.8641   26.2906  -78.1708 C.3       7 UNK         0.0284 
     36 CB        -75.4797   24.9787  -78.6777 C.3       7 UNK        -0.1958 
     37 N         -75.6226   26.7645  -77.0065 N.am      7 UNK        -0.4454 
     38 C         -75.4096   27.9073  -76.3391 C.2       7 UNK         0.5089 
     39 O         -74.5527   28.7336  -76.6562 O.2       7 UNK        -0.5125 
     40 CA        -76.2495   28.1409  -75.0693 C.3       6 UNK         0.0408 
     41 CB        -77.5200   28.9286  -75.4191 C.3       6 UNK        -0.1791 
     42 N         -76.6048   26.9286  -74.3119 N.am      6 UNK        -0.4762 
     43 C         -75.7328   26.0091  -73.8635 C.2       6 UNK         0.5007 
     44 O         -74.5325   26.0201  -74.1401 O.2       6 UNK        -0.5032 
     45 CA        -76.2854   24.8706  -72.9861 C.3       5 UNK         0.0783 
     46 C46       -76.6490   25.3310  -71.5460 C.3       11 UNK        -0.0857 
     47 S47       -75.2837   26.0865  -70.5916 S.3       11 UNK        -0.2512 
     48 C48       -76.1826   27.2332  -69.4907 C.3       11 UNK         0.0225 
     49 N         -77.4125   24.2127  -73.6567 N.am      5 UNK        -0.4615 
     50 C         -77.9269   23.0387  -73.2603 C.2       4 UNK         0.5053 
     51 O         -77.4583   22.3638  -72.3429 O.2       4 UNK        -0.5105 
     52 CA        -79.1842   22.5200  -73.9799 C.3       4 UNK         0.0263 
     53 CB        -80.4447   23.0538  -73.2823 C.3       4 UNK        -0.1981 
     54 N         -79.2338   22.8548  -75.4028 N.am      4 UNK        -0.4224 
     55 C         -78.3741   22.3860  -76.3198 C.2       3 UNK         0.4895 
     56 O         -77.4741   21.5856  -76.0624 O.2       3 UNK        -0.5091 
     57 CA        -78.5284   22.8762  -77.7720 C.3       3 UNK         0.0250 
     58 CB        -79.1483   21.7721  -78.6444 C.3       3 UNK        -0.1996 
     59 N         -79.3093   24.1050  -77.9433 N.am      3 UNK        -0.4254 
     60 C         -79.0664   25.2962  -77.3790 C.2       2 UNK         0.5004 
     61 O         -78.1365   25.5085  -76.5982 O.2       2 UNK        -0.5226 
     62 CA        -80.0504   26.4365  -77.7101 C.3       2 UNK         0.0269 
     63 CB        -80.9794   26.1370  -78.9087 C.3       2 UNK        -0.1926 
     64 N         -80.8565   26.8447  -76.5515 N.am      2 UNK        -0.4687 
     65 C         -81.5576   26.0536  -75.7219 C.2       1 UNK         0.5165 
     66 O         -81.5759   24.8221  -75.8141 O.2       1 UNK        -0.5079 
     67 H67       -84.0075   23.0365  -72.7762 H         1 UNK         0.0900 
     68 H68       -83.2044   24.1629  -71.6815 H         1 UNK         0.0900 
     69 H69       -84.9527   24.2496  -71.9076 H         1 UNK         0.0900 
     70 H70       -82.1107   25.7686  -72.7861 H         1 UNK         0.2959 
     71 H71       -83.2908   27.1018  -75.1147 H         1 UNK         0.1079 
     72 H72       -81.5408   28.7880  -74.8029 H         1 UNK         0.0837 
     73 H73       -82.3864   28.5003  -73.3191 H         1 UNK         0.0837 
     74 H74       -80.7239   29.1352  -71.3219 H         1 UNK         0.0685 
     75 H75       -80.2598   30.0785  -72.7239 H         1 UNK         0.0685 
     76 H76       -78.7248   27.5138  -70.4454 H         1 UNK         0.1434 
     77 H77       -74.9548   29.5371  -70.2502 H         1 UNK         0.1329 
     78 H78       -78.1649   31.1940  -72.5649 H         1 UNK         0.1335 
     79 H79       -76.2175   32.5576  -72.0453 H         1 UNK         0.0680 
     80 H80       -74.9784   31.9984  -70.9552 H         1 UNK         0.0680 
     81 H81       -73.5979   29.2064  -72.5565 H         1 UNK         0.1032 
     82 H82       -73.2001   30.4799  -71.4282 H         1 UNK         0.1032 
     83 H83       -71.6090   31.4773  -73.0644 H         1 UNK         0.0461 
     84 H84       -69.3016   28.2763  -72.4052 H         1 UNK         0.3453 
     85 H85       -70.0919   28.5535  -73.9359 H         1 UNK         0.3453 
     86 H86       -72.6654   29.4826  -74.8725 H         1 UNK         0.2984 
     87 H87       -72.0744   30.4045  -77.3456 H         1 UNK         0.0554 
     88 H88       -69.8199   31.1763  -77.9772 H         1 UNK         0.0847 
     89 H89       -70.1726   29.6710  -78.8093 H         1 UNK         0.0847 
     90 H90       -69.0949   29.6797  -77.4138 H         1 UNK         0.0847 
     91 H91       -72.5385   28.2651  -77.1185 H         1 UNK         0.3141 
     92 H92       -70.9391   25.4271  -76.9606 H         1 UNK         0.0743 
     93 H93       -70.3316   25.3153  -74.5800 H         1 UNK         0.0784 
     94 H94       -71.8440   26.0711  -74.1040 H         1 UNK         0.0784 
     95 H95       -71.8441   24.4562  -74.8130 H         1 UNK         0.0784 
     96 H96       -73.5939   26.0601  -75.9141 H         1 UNK         0.3213 
     97 H97       -74.9736   27.0435  -78.9539 H         1 UNK         0.0855 
     98 H98       -75.4646   24.2086  -77.9057 H         1 UNK         0.0814 
     99 H99       -74.9306   24.5913  -79.5372 H         1 UNK         0.0814 
    100 H100      -76.5104   25.1253  -78.9986 H         1 UNK         0.0814 
    101 H101      -76.3990   26.1829  -76.6965 H         1 UNK         0.3105 
    102 H102      -75.6465   28.7585  -74.4018 H         1 UNK         0.0547 
    103 H103      -78.2297   28.3205  -75.9794 H         1 UNK         0.0837 
    104 H104      -77.2858   29.8051  -76.0250 H         1 UNK         0.0837 
    105 H105      -78.0190   29.2902  -74.5224 H         1 UNK         0.0837 
    106 H106      -77.5755   26.8478  -74.0434 H         1 UNK         0.3020 
    107 H107      -75.4839   24.1324  -72.9049 H         1 UNK         0.1245 
    108 H108      -77.0000   24.4866  -70.9529 H         1 UNK         0.0781 
    109 H109      -77.4957   26.0087  -71.6041 H         1 UNK         0.0781 
    110 H110      -75.4953   27.6093  -68.7315 H         1 UNK         0.0836 
    111 H111      -76.9632   26.6909  -68.9548 H         1 UNK         0.0836 
    112 H112      -77.7945   24.6758  -74.4735 H         1 UNK         0.3022 
    113 H113      -79.1866   21.4309  -73.8979 H         1 UNK         0.0747 
    114 H114      -80.4767   24.1434  -73.3001 H         1 UNK         0.0793 
    115 H115      -81.3526   22.6822  -73.7579 H         1 UNK         0.0793 
    116 H116      -80.4742   22.7439  -72.2368 H         1 UNK         0.0793 
    117 H117      -79.9553   23.5069  -75.6950 H         1 UNK         0.3047 
    118 H118      -77.5237   23.0721  -78.1452 H         1 UNK         0.0822 
    119 H119      -79.1637   22.0572  -79.6965 H         1 UNK         0.0807 
    120 H120      -80.1714   21.5461  -78.3408 H         1 UNK         0.0807 
    121 H121      -78.5752   20.8465  -78.5719 H         1 UNK         0.0807 
    122 H122      -80.1248   24.0312  -78.5339 H         1 UNK         0.2946 
    123 H123      -79.4287   27.2912  -77.9816 H         1 UNK         0.1144 
    124 H124      -81.5667   27.0167  -79.1727 H         1 UNK         0.0793 
    125 H125      -81.6822   25.3302  -78.6963 H         1 UNK         0.0793 
    126 H126      -80.4083   25.8625  -79.7970 H         1 UNK         0.0793 
    127 H127      -80.8663   27.8373  -76.3663 H         1 UNK         0.2896 
@<TRIPOS>BOND
     1    1    2 1    
     2    1   67 1    
     3    1   68 1    
     4    1   69 1    
     5    2    3 2    
     6    2    4 am   BACKBONE|DICT|INTERRES
     7    4    5 1    
     8    4   70 1    
     9    5    6 1    
    10    5   65 1    
    11    5   71 1    
    12    6    7 1    
    13    6   72 1    
    14    6   73 1    
    15    7    8 1    
    16    8    9 1    
    17    8   74 1    
    18    8   75 1    
    19    9   10 ar   
    20    9   14 ar   
    21   10   11 ar   
    22   10   76 1    
    23   11   12 ar   
    24   11   48 1    
    25   12   13 ar   
    26   12   77 1    
    27   13   14 ar   
    28   13   15 1    
    29   14   78 1    
    30   15   16 1    
    31   15   79 1    
    32   15   80 1    
    33   16   17 1    
    34   17   18 1    
    35   17   81 1    
    36   17   82 1    
    37   18   19 1    
    38   18   22 1    
    39   18   83 1    
    40   19   20 am   BACKBONE|DICT|INTERRES
    41   19   21 2    
    42   20   84 1    
    43   20   85 1    
    44   22   23 am   BACKBONE|DICT|INTERRES
    45   22   86 1    
    46   23   24 2    
    47   23   25 1    
    48   25   26 1    
    49   25   27 1    
    50   25   87 1    
    51   26   88 1    
    52   26   89 1    
    53   26   90 1    
    54   27   28 am   BACKBONE|DICT|INTERRES
    55   27   91 1    
    56   28   29 2    
    57   28   30 1    
    58   30   31 1    
    59   30   32 1    
    60   30   92 1    
    61   31   93 1    
    62   31   94 1    
    63   31   95 1    
    64   32   33 am   BACKBONE|DICT|INTERRES
    65   32   96 1    
    66   33   34 2    
    67   33   35 1    
    68   35   36 1    
    69   35   37 1    
    70   35   97 1    
    71   36   98 1    
    72   36   99 1    
    73   36  100 1    
    74   37   38 am   BACKBONE|DICT|INTERRES
    75   37  101 1    
    76   38   39 2    
    77   38   40 1    
    78   40   41 1    
    79   40   42 1    
    80   40  102 1    
    81   41  103 1    
    82   41  104 1    
    83   41  105 1    
    84   42   43 am   BACKBONE|DICT|INTERRES
    85   42  106 1    
    86   43   44 2    
    87   43   45 1    
    88   45   46 1    
    89   45   49 1    
    90   45  107 1    
    91   46   47 1    
    92   46  108 1    
    93   46  109 1    
    94   47   48 1    
    95   48  110 1    
    96   48  111 1    
    97   49   50 am   BACKBONE|DICT|INTERRES
    98   49  112 1    
    99   50   51 2    
   100   50   52 1    
   101   52   53 1    
   102   52   54 1    
   103   52  113 1    
   104   53  114 1    
   105   53  115 1    
   106   53  116 1    
   107   54   55 am   BACKBONE|DICT|INTERRES
   108   54  117 1    
   109   55   56 2    
   110   55   57 1    
   111   57   58 1    
   112   57   59 1    
   113   57  118 1    
   114   58  119 1    
   115   58  120 1    
   116   58  121 1    
   117   59   60 am   BACKBONE|DICT|INTERRES
   118   59  122 1    
   119   60   61 2    
   120   60   62 1    
   121   62   63 1    
   122   62   64 1    
   123   62  123 1    
   124   63  124 1    
   125   63  125 1    
   126   63  126 1    
   127   64   65 am   BACKBONE|DICT|INTERRES
   128   64  127 1    
   129   65   66 2    
@<TRIPOS>SUBSTRUCTURE
     1 UNK         1 GROUP             0       ****    0 ROOT    
