@<TRIPOS>MOLECULE
3R135
127   129    1
SMALL
USER_CHARGES


@<TRIPOS>ATOM
      1 CA        -81.2597   29.3517  -76.4376 C.3       0 UNK        -0.1998 
      2 C         -81.0284   28.3375  -75.3286 C.2       0 UNK         0.4909 
      3 O         -80.3333   27.3440  -75.5444 O.2       0 UNK        -0.5240 
      4 N         -81.6047   28.5770  -74.1428 N.am      1 UNK        -0.4739 
      5 CA        -81.4990   27.7120  -72.9623 C.3       1 UNK         0.0864 
      6 C6        -82.1762   28.3285  -71.7104 C.3       11 UNK        -0.0881 
      7 S7        -81.6236   30.0268  -71.3251 S.3       11 UNK        -0.2682 
      8 C8        -80.4403   29.7588  -69.9672 C.3       11 UNK         0.0289 
      9 C9        -79.0776   29.3395  -70.4952 C.ar      11 UNK        -0.0687 
     10 C10       -78.7198   27.9892  -70.5434 C.ar      11 UNK        -0.0823 
     11 C11       -77.4779   27.6044  -71.0571 C.ar      11 UNK        -0.0830 
     12 C12       -76.5831   28.5831  -71.5017 C.ar      11 UNK        -0.1021 
     13 C13       -76.9262   29.9371  -71.4503 C.ar      11 UNK        -0.0753 
     14 C14       -78.1749   30.3091  -70.9440 C.ar      11 UNK        -0.0933 
     15 C15       -75.9594   30.9910  -71.9702 C.3       11 UNK         0.0166 
     16 S16       -74.4877   31.1321  -70.9087 S.3       11 UNK        -0.2615 
     17 C17       -73.5295   32.4160  -71.7920 C.3       11 UNK        -0.0865 
     18 CA        -72.3534   31.8629  -72.6423 C.3       10 UNK         0.0862 
     19 C         -71.1909   31.3047  -71.7665 C.2       10 UNK         0.5551 
     20 N         -70.8001   30.0414  -71.8903 N.am      10 UNK        -0.7319 
     21 O         -70.6208   32.0436  -70.9672 O.2       10 UNK        -0.5018 
     22 N         -72.8340   30.9537  -73.6922 N.am      10 UNK        -0.4509 
     23 C         -72.1913   30.6862  -74.8332 C.2       10 UNK         0.4899 
     24 O         -71.1410   31.2262  -75.1860 O.2       10 UNK        -0.4839 
     25 CA        -72.8389   29.6196  -75.7317 C.3       9 UNK         0.0222 
     26 CB        -73.1647   30.1939  -77.1206 C.3       9 UNK        -0.1966 
     27 N         -72.0009   28.4285  -75.8836 N.am      9 UNK        -0.4218 
     28 C         -71.5389   27.6612  -74.8845 C.2       9 UNK         0.5020 
     29 O         -71.7162   27.9028  -73.6880 O.2       9 UNK        -0.5274 
     30 CA        -70.8024   26.3833  -75.3109 C.3       8 UNK         0.0270 
     31 CB        -70.4216   25.4738  -74.1257 C.3       8 UNK        -0.1976 
     32 N         -71.6431   25.6451  -76.2526 N.am      8 UNK        -0.4313 
     33 C         -71.1954   24.9174  -77.2843 C.2       8 UNK         0.5041 
     34 O         -69.9997   24.7683  -77.5413 O.2       8 UNK        -0.5577 
     35 CA        -72.2390   24.2339  -78.1918 C.3       7 UNK         0.0284 
     36 CB        -72.3274   22.7336  -77.8684 C.3       7 UNK        -0.1958 
     37 N         -73.5791   24.8197  -78.1040 N.am      7 UNK        -0.4454 
     38 C         -73.9101   26.0450  -78.5392 C.2       7 UNK         0.5089 
     39 O         -73.1312   26.7897  -79.1344 O.2       7 UNK        -0.5125 
     40 CA        -75.3335   26.5482  -78.2257 C.3       6 UNK         0.0408 
     41 CB        -76.2351   26.4040  -79.4609 C.3       6 UNK        -0.1791 
     42 N         -75.9757   25.8923  -77.0805 N.am      6 UNK        -0.4762 
     43 C         -75.4899   25.8640  -75.8279 C.2       6 UNK         0.5007 
     44 O         -74.4287   26.3925  -75.5028 O.2       6 UNK        -0.5032 
     45 CA        -76.2865   25.0875  -74.7606 C.3       5 UNK         0.0783 
     46 C46       -77.1758   26.0756  -73.9715 C.3       11 UNK        -0.0857 
     47 S47       -77.9670   25.3049  -72.5213 S.3       11 UNK        -0.2512 
     48 C48       -77.1101   26.1301  -71.1421 C.3       11 UNK         0.0225 
     49 N         -77.0750   23.9820  -75.3119 N.am      5 UNK        -0.4615 
     50 C         -76.6327   22.9713  -76.0741 C.2       4 UNK         0.5053 
     51 O         -75.4476   22.7906  -76.3550 O.2       4 UNK        -0.5105 
     52 CA        -77.7069   22.0406  -76.6708 C.3       4 UNK         0.0263 
     53 CB        -77.8057   20.7435  -75.8532 C.3       4 UNK        -0.1981 
     54 N         -79.0352   22.6620  -76.7479 N.am      4 UNK        -0.4224 
     55 C         -79.3478   23.7603  -77.4502 C.2       3 UNK         0.4895 
     56 O         -78.5617   24.3301  -78.2072 O.2       3 UNK        -0.5091 
     57 CA        -80.7324   24.3802  -77.2005 C.3       3 UNK         0.0250 
     58 CB        -81.8296   23.6794  -78.0253 C.3       3 UNK        -0.1996 
     59 N         -81.0787   24.4825  -75.7724 N.am      3 UNK        -0.4254 
     60 C         -81.3886   23.5029  -74.9062 C.2       2 UNK         0.5004 
     61 O         -81.4299   22.3136  -75.2245 O.2       2 UNK        -0.5226 
     62 CA        -81.6387   23.8828  -73.4317 C.3       2 UNK         0.0269 
     63 CB        -80.8733   22.9436  -72.4812 C.3       2 UNK        -0.1926 
     64 N         -81.2725   25.2685  -73.1211 N.am      2 UNK        -0.4687 
     65 C         -82.0919   26.3181  -73.2576 C.2       1 UNK         0.5165 
     66 O         -83.2659   26.2238  -73.6228 O.2       1 UNK        -0.5079 
     67 H67       -81.7469   28.8729  -77.2865 H         1 UNK         0.0900 
     68 H68       -81.8864   30.1803  -76.1082 H         1 UNK         0.0900 
     69 H69       -80.3075   29.7590  -76.7759 H         1 UNK         0.0900 
     70 H70       -82.1672   29.4066  -74.0189 H         1 UNK         0.2959 
     71 H71       -80.4336   27.5983  -72.7524 H         1 UNK         0.1079 
     72 H72       -83.2586   28.3704  -71.8491 H         1 UNK         0.0837 
     73 H73       -82.0151   27.6905  -70.8395 H         1 UNK         0.0837 
     74 H74       -80.3396   30.6883  -69.4046 H         1 UNK         0.0685 
     75 H75       -80.8317   29.0226  -69.2635 H         1 UNK         0.0685 
     76 H76       -79.4141   27.2346  -70.1996 H         1 UNK         0.1434 
     77 H77       -75.6182   28.2942  -71.8962 H         1 UNK         0.1329 
     78 H78       -78.4536   31.3536  -70.9101 H         1 UNK         0.1335 
     79 H79       -76.4493   31.9642  -72.0320 H         1 UNK         0.0680 
     80 H80       -75.6596   30.7304  -72.9858 H         1 UNK         0.0680 
     81 H81       -74.2006   32.9925  -72.4305 H         1 UNK         0.1032 
     82 H82       -73.1585   33.1308  -71.0550 H         1 UNK         0.1032 
     83 H83       -71.9216   32.7252  -73.1542 H         1 UNK         0.0461 
     84 H84       -70.0440   29.7039  -71.3172 H         1 UNK         0.3453 
     85 H85       -71.2531   29.4111  -72.5456 H         1 UNK         0.3453 
     86 H86       -73.6518   30.4126  -73.4557 H         1 UNK         0.2984 
     87 H87       -73.7768   29.2941  -75.2762 H         1 UNK         0.0554 
     88 H88       -73.8136   31.0669  -77.0391 H         1 UNK         0.0847 
     89 H89       -73.6817   29.4644  -77.7437 H         1 UNK         0.0847 
     90 H90       -72.2637   30.5065  -77.6501 H         1 UNK         0.0847 
     91 H91       -71.7971   28.1431  -76.8307 H         1 UNK         0.3141 
     92 H92       -69.8851   26.7051  -75.8086 H         1 UNK         0.0743 
     93 H93       -69.7877   26.0037  -73.4136 H         1 UNK         0.0784 
     94 H94       -71.3045   25.1284  -73.5865 H         1 UNK         0.0784 
     95 H95       -69.8684   24.5963  -74.4608 H         1 UNK         0.0784 
     96 H96       -72.6455   25.7564  -76.1156 H         1 UNK         0.3213 
     97 H97       -71.8928   24.3422  -79.2220 H         1 UNK         0.0855 
     98 H98       -72.6712   22.5615  -76.8475 H         1 UNK         0.0814 
     99 H99       -71.3530   22.2536  -77.9697 H         1 UNK         0.0814 
    100 H100      -73.0125   22.2203  -78.5434 H         1 UNK         0.0814 
    101 H101      -74.2807   24.2766  -77.6138 H         1 UNK         0.3105 
    102 H102      -75.2551   27.6097  -77.9845 H         1 UNK         0.0547 
    103 H103      -77.2211   26.8349  -79.2865 H         1 UNK         0.0837 
    104 H104      -75.8055   26.9174  -80.3222 H         1 UNK         0.0837 
    105 H105      -76.3723   25.3581  -79.7387 H         1 UNK         0.0837 
    106 H106      -76.8453   25.4078  -77.2732 H         1 UNK         0.3020 
    107 H107      -75.5529   24.6531  -74.0780 H         1 UNK         0.1245 
    108 H108      -77.9618   26.4798  -74.6120 H         1 UNK         0.0781 
    109 H109      -76.5894   26.9354  -73.6484 H         1 UNK         0.0781 
    110 H110      -76.0322   26.0014  -71.2536 H         1 UNK         0.0836 
    111 H111      -77.3813   25.6339  -70.2091 H         1 UNK         0.0836 
    112 H112      -78.0654   24.0265  -75.1279 H         1 UNK         0.3022 
    113 H113      -77.3953   21.7905  -77.6869 H         1 UNK         0.0747 
    114 H114      -78.5041   20.0405  -76.3077 H         1 UNK         0.0793 
    115 H115      -76.8374   20.2442  -75.7937 H         1 UNK         0.0793 
    116 H116      -78.1387   20.9347  -74.8321 H         1 UNK         0.0793 
    117 H117      -79.7677   22.2717  -76.1595 H         1 UNK         0.3047 
    118 H118      -80.6752   25.4111  -77.5542 H         1 UNK         0.0822 
    119 H119      -81.6052   23.7353  -79.0912 H         1 UNK         0.0807 
    120 H120      -82.8005   24.1509  -77.8735 H         1 UNK         0.0807 
    121 H121      -81.9262   22.6231  -77.7734 H         1 UNK         0.0807 
    122 H122      -81.0049   25.4266  -75.4044 H         1 UNK         0.2946 
    123 H123      -82.7069   23.7427  -73.2495 H         1 UNK         0.1144 
    124 H124      -81.0238   23.2227  -71.4382 H         1 UNK         0.0793 
    125 H125      -79.8015   22.9497  -72.6801 H         1 UNK         0.0793 
    126 H126      -81.2153   21.9134  -72.5889 H         1 UNK         0.0793 
    127 H127      -80.3099   25.4235  -72.8471 H         1 UNK         0.2896 
@<TRIPOS>BOND
     1    1    2 1    
     2    1   67 1    
     3    1   68 1    
     4    1   69 1    
     5    2    3 2    
     6    2    4 am   BACKBONE|DICT|INTERRES
     7    4    5 1    
     8    4   70 1    
     9    5    6 1    
    10    5   65 1    
    11    5   71 1    
    12    6    7 1    
    13    6   72 1    
    14    6   73 1    
    15    7    8 1    
    16    8    9 1    
    17    8   74 1    
    18    8   75 1    
    19    9   10 ar   
    20    9   14 ar   
    21   10   11 ar   
    22   10   76 1    
    23   11   12 ar   
    24   11   48 1    
    25   12   13 ar   
    26   12   77 1    
    27   13   14 ar   
    28   13   15 1    
    29   14   78 1    
    30   15   16 1    
    31   15   79 1    
    32   15   80 1    
    33   16   17 1    
    34   17   18 1    
    35   17   81 1    
    36   17   82 1    
    37   18   19 1    
    38   18   22 1    
    39   18   83 1    
    40   19   20 am   BACKBONE|DICT|INTERRES
    41   19   21 2    
    42   20   84 1    
    43   20   85 1    
    44   22   23 am   BACKBONE|DICT|INTERRES
    45   22   86 1    
    46   23   24 2    
    47   23   25 1    
    48   25   26 1    
    49   25   27 1    
    50   25   87 1    
    51   26   88 1    
    52   26   89 1    
    53   26   90 1    
    54   27   28 am   BACKBONE|DICT|INTERRES
    55   27   91 1    
    56   28   29 2    
    57   28   30 1    
    58   30   31 1    
    59   30   32 1    
    60   30   92 1    
    61   31   93 1    
    62   31   94 1    
    63   31   95 1    
    64   32   33 am   BACKBONE|DICT|INTERRES
    65   32   96 1    
    66   33   34 2    
    67   33   35 1    
    68   35   36 1    
    69   35   37 1    
    70   35   97 1    
    71   36   98 1    
    72   36   99 1    
    73   36  100 1    
    74   37   38 am   BACKBONE|DICT|INTERRES
    75   37  101 1    
    76   38   39 2    
    77   38   40 1    
    78   40   41 1    
    79   40   42 1    
    80   40  102 1    
    81   41  103 1    
    82   41  104 1    
    83   41  105 1    
    84   42   43 am   BACKBONE|DICT|INTERRES
    85   42  106 1    
    86   43   44 2    
    87   43   45 1    
    88   45   46 1    
    89   45   49 1    
    90   45  107 1    
    91   46   47 1    
    92   46  108 1    
    93   46  109 1    
    94   47   48 1    
    95   48  110 1    
    96   48  111 1    
    97   49   50 am   BACKBONE|DICT|INTERRES
    98   49  112 1    
    99   50   51 2    
   100   50   52 1    
   101   52   53 1    
   102   52   54 1    
   103   52  113 1    
   104   53  114 1    
   105   53  115 1    
   106   53  116 1    
   107   54   55 am   BACKBONE|DICT|INTERRES
   108   54  117 1    
   109   55   56 2    
   110   55   57 1    
   111   57   58 1    
   112   57   59 1    
   113   57  118 1    
   114   58  119 1    
   115   58  120 1    
   116   58  121 1    
   117   59   60 am   BACKBONE|DICT|INTERRES
   118   59  122 1    
   119   60   61 2    
   120   60   62 1    
   121   62   63 1    
   122   62   64 1    
   123   62  123 1    
   124   63  124 1    
   125   63  125 1    
   126   63  126 1    
   127   64   65 am   BACKBONE|DICT|INTERRES
   128   64  127 1    
   129   65   66 2    
@<TRIPOS>SUBSTRUCTURE
     1 UNK         1 GROUP             0       ****    0 ROOT    
