@<TRIPOS>MOLECULE
3R135
127   129    1
SMALL
USER_CHARGES


@<TRIPOS>ATOM
      1 CA        -84.8766   29.5453  -74.7028 C.3       0 UNK        -0.1998 
      2 C         -83.6934   29.0216  -75.5026 C.2       0 UNK         0.4909 
      3 O         -83.7516   28.9883  -76.7320 O.2       0 UNK        -0.5240 
      4 N         -82.6201   28.6111  -74.8138 N.am      1 UNK        -0.4739 
      5 CA        -81.3891   28.0819  -75.4203 C.3       1 UNK         0.0864 
      6 C6        -80.1889   28.1462  -74.4416 C.3       11 UNK        -0.0881 
      7 S7        -79.7875   29.8662  -73.9779 S.3       11 UNK        -0.2682 
      8 C8        -80.0957   29.8711  -72.1832 C.3       11 UNK         0.0289 
      9 C9        -78.9026   29.3255  -71.4127 C.ar      11 UNK        -0.0687 
     10 C10       -78.8522   27.9796  -71.0415 C.ar      11 UNK        -0.0823 
     11 C11       -77.7442   27.4776  -70.3532 C.ar      11 UNK        -0.0830 
     12 C12       -76.7049   28.3410  -69.9950 C.ar      11 UNK        -0.1021 
     13 C13       -76.7221   29.6831  -70.3947 C.ar      11 UNK        -0.0753 
     14 C14       -77.8344   30.1683  -71.0900 C.ar      11 UNK        -0.0933 
     15 C15       -75.5554   30.6301  -70.1105 C.3       11 UNK         0.0166 
     16 S16       -73.9167   29.8270  -70.0002 S.3       11 UNK        -0.2615 
     17 C17       -73.6813   29.1161  -71.6716 C.3       11 UNK        -0.0865 
     18 CA        -72.4612   29.7018  -72.4378 C.3       10 UNK         0.0862 
     19 C         -71.0903   29.1951  -71.8791 C.2       10 UNK         0.5551 
     20 N         -70.2250   28.5680  -72.6676 N.am      10 UNK        -0.7319 
     21 O         -70.7854   29.3915  -70.7060 O.2       10 UNK        -0.5018 
     22 N         -72.6281   29.5204  -73.8902 N.am      10 UNK        -0.4509 
     23 C         -72.0021   30.2382  -74.8318 C.2       10 UNK         0.4899 
     24 O         -71.2992   31.2208  -74.5894 O.2       10 UNK        -0.4839 
     25 CA        -72.1746   29.7449  -76.2834 C.3       9 UNK         0.0222 
     26 CB        -71.2440   30.4648  -77.2816 C.3       9 UNK        -0.1966 
     27 N         -72.0334   28.2877  -76.4042 N.am      9 UNK        -0.4218 
     28 C         -70.9833   27.5315  -76.0465 C.2       9 UNK         0.5020 
     29 O         -69.9391   27.9891  -75.5817 O.2       9 UNK        -0.5274 
     30 CA        -71.1229   26.0016  -76.1749 C.3       8 UNK         0.0270 
     31 CB        -71.2581   25.3655  -74.7814 C.3       8 UNK        -0.1976 
     32 N         -72.2567   25.5767  -76.9988 N.am      8 UNK        -0.4313 
     33 C         -72.3229   25.6835  -78.3327 C.2       8 UNK         0.5041 
     34 O         -71.3971   26.0858  -79.0378 O.2       8 UNK        -0.5577 
     35 CA        -73.6692   25.3205  -78.9803 C.3       7 UNK         0.0284 
     36 CB        -73.7735   23.8062  -79.2254 C.3       7 UNK        -0.1958 
     37 N         -74.8039   25.7734  -78.1700 N.am      7 UNK        -0.4454 
     38 C         -75.1575   27.0573  -78.0149 C.2       7 UNK         0.5089 
     39 O         -74.5972   27.9961  -78.5796 O.2       7 UNK        -0.5125 
     40 CA        -76.3033   27.3475  -77.0336 C.3       6 UNK         0.0408 
     41 CB        -77.6623   27.1860  -77.7295 C.3       6 UNK        -0.1791 
     42 N         -76.2473   26.5025  -75.8378 N.am      6 UNK        -0.4762 
     43 C         -75.3229   26.6343  -74.8715 C.2       6 UNK         0.5007 
     44 O         -74.4519   27.5040  -74.8721 O.2       6 UNK        -0.5032 
     45 CA        -75.3603   25.6257  -73.7049 C.3       5 UNK         0.0783 
     46 C46       -76.3060   26.1703  -72.6157 C.3       11 UNK        -0.0857 
     47 S47       -76.2550   25.2234  -71.0551 S.3       11 UNK        -0.2512 
     48 C48       -77.6174   25.9818  -70.0930 C.3       11 UNK         0.0225 
     49 N         -75.7447   24.2754  -74.1152 N.am      5 UNK        -0.4615 
     50 C         -75.2141   23.5537  -75.1106 C.2       4 UNK         0.5053 
     51 O         -74.2189   23.8973  -75.7478 O.2       4 UNK        -0.5105 
     52 CA        -75.9589   22.2633  -75.5062 C.3       4 UNK         0.0263 
     53 CB        -75.1918   21.0302  -75.0045 C.3       4 UNK        -0.1981 
     54 N         -77.3500   22.1999  -75.0299 N.am      4 UNK        -0.4224 
     55 C         -78.3179   23.0776  -75.3351 C.2       3 UNK         0.4895 
     56 O         -78.1610   24.0412  -76.0912 O.2       3 UNK        -0.5091 
     57 CA        -79.6475   22.8960  -74.5959 C.3       3 UNK         0.0250 
     58 CB        -79.5136   23.3515  -73.1273 C.3       3 UNK        -0.1996 
     59 N         -80.6757   23.6859  -75.2650 N.am      3 UNK        -0.4254 
     60 C         -81.9970   23.5293  -75.1372 C.2       2 UNK         0.5004 
     61 O         -82.5135   22.6577  -74.4349 O.2       2 UNK        -0.5226 
     62 CA        -82.8833   24.5371  -75.8967 C.3       2 UNK         0.0269 
     63 CB        -84.3886   24.2810  -75.6910 C.3       2 UNK        -0.1926 
     64 N         -82.5840   25.9179  -75.5046 N.am      2 UNK        -0.4687 
     65 C         -81.5642   26.6510  -75.9737 C.2       1 UNK         0.5165 
     66 O         -80.7654   26.2251  -76.8076 O.2       1 UNK        -0.5079 
     67 H67       -85.0963   30.5736  -74.9886 H         1 UNK         0.0900 
     68 H68       -84.6852   29.5258  -73.6300 H         1 UNK         0.0900 
     69 H69       -85.7608   28.9401  -74.9009 H         1 UNK         0.0900 
     70 H70       -82.6202   28.6798  -73.8065 H         1 UNK         0.2959 
     71 H71       -81.1474   28.7077  -76.2829 H         1 UNK         0.1079 
     72 H72       -80.3902   27.5487  -73.5519 H         1 UNK         0.0837 
     73 H73       -79.2929   27.7157  -74.8923 H         1 UNK         0.0837 
     74 H74       -80.9997   29.3050  -71.9541 H         1 UNK         0.0685 
     75 H75       -80.2940   30.8963  -71.8667 H         1 UNK         0.0685 
     76 H76       -79.6594   27.3157  -71.3172 H         1 UNK         0.1434 
     77 H77       -75.8519   27.9401  -69.4658 H         1 UNK         0.1329 
     78 H78       -77.8642   31.2046  -71.3987 H         1 UNK         0.1335 
     79 H79       -75.5025   31.4018  -70.8804 H         1 UNK         0.0680 
     80 H80       -75.7518   31.1447  -69.1693 H         1 UNK         0.0680 
     81 H81       -73.5990   28.0311  -71.5859 H         1 UNK         0.1032 
     82 H82       -74.5927   29.2947  -72.2445 H         1 UNK         0.1032 
     83 H83       -72.4652   30.7798  -72.2647 H         1 UNK         0.0461 
     84 H84       -69.3476   28.2645  -72.2770 H         1 UNK         0.3453 
     85 H85       -70.3944   28.4519  -73.6592 H         1 UNK         0.3453 
     86 H86       -73.2027   28.7362  -74.1899 H         1 UNK         0.2984 
     87 H87       -73.2035   29.9742  -76.5645 H         1 UNK         0.0554 
     88 H88       -71.4096   30.1136  -78.3002 H         1 UNK         0.0847 
     89 H89       -70.1921   30.3086  -77.0399 H         1 UNK         0.0847 
     90 H90       -71.4226   31.5407  -77.2773 H         1 UNK         0.0847 
     91 H91       -72.8615   27.8031  -76.7231 H         1 UNK         0.3141 
     92 H92       -70.2069   25.6273  -76.6366 H         1 UNK         0.0743 
     93 H93       -70.3923   25.5967  -74.1593 H         1 UNK         0.0784 
     94 H94       -72.1412   25.7313  -74.2577 H         1 UNK         0.0784 
     95 H95       -71.3311   24.2794  -74.8443 H         1 UNK         0.0784 
     96 H96       -73.0403   25.1440  -76.5129 H         1 UNK         0.3213 
     97 H97       -73.7194   25.8252  -79.9479 H         1 UNK         0.0855 
     98 H98       -73.7258   23.2366  -78.2969 H         1 UNK         0.0814 
     99 H99       -72.9566   23.4597  -79.8600 H         1 UNK         0.0814 
    100 H100      -74.7051   23.5490  -79.7296 H         1 UNK         0.0814 
    101 H101      -75.2914   25.0722  -77.6305 H         1 UNK         0.3105 
    102 H102      -76.2113   28.3895  -76.7190 H         1 UNK         0.0547 
    103 H103      -77.8764   26.1446  -77.9735 H         1 UNK         0.0837 
    104 H104      -78.4704   27.5557  -77.1013 H         1 UNK         0.0837 
    105 H105      -77.6981   27.7544  -78.6598 H         1 UNK         0.0837 
    106 H106      -76.9201   25.7445  -75.7799 H         1 UNK         0.3020 
    107 H107      -74.3502   25.5664  -73.2957 H         1 UNK         0.1245 
    108 H108      -77.3362   26.1976  -72.9774 H         1 UNK         0.0781 
    109 H109      -76.0346   27.2018  -72.3860 H         1 UNK         0.0781 
    110 H110      -78.5470   25.4676  -70.3419 H         1 UNK         0.0836 
    111 H111      -77.4462   25.8084  -69.0298 H         1 UNK         0.0836 
    112 H112      -76.5400   23.8880  -73.6314 H         1 UNK         0.3022 
    113 H113      -75.9837   22.2324  -76.5974 H         1 UNK         0.0747 
    114 H114      -74.1627   21.0366  -75.3670 H         1 UNK         0.0793 
    115 H115      -75.6502   20.1059  -75.3568 H         1 UNK         0.0793 
    116 H116      -75.1529   20.9940  -73.9150 H         1 UNK         0.0793 
    117 H117      -77.5674   21.4465  -74.3926 H         1 UNK         0.3047 
    118 H118      -79.9248   21.8404  -74.6363 H         1 UNK         0.0822 
    119 H119      -78.7440   22.7861  -72.6006 H         1 UNK         0.0807 
    120 H120      -80.4440   23.2052  -72.5784 H         1 UNK         0.0807 
    121 H121      -79.2506   24.4078  -73.0563 H         1 UNK         0.0807 
    122 H122      -80.3203   24.4098  -75.8854 H         1 UNK         0.2946 
    123 H123      -82.6683   24.4128  -76.9608 H         1 UNK         0.1144 
    124 H124      -84.6776   24.3837  -74.6443 H         1 UNK         0.0793 
    125 H125      -84.6607   23.2732  -76.0080 H         1 UNK         0.0793 
    126 H126      -84.9921   24.9757  -76.2756 H         1 UNK         0.0793 
    127 H127      -83.1825   26.3316  -74.8045 H         1 UNK         0.2896 
@<TRIPOS>BOND
     1    1    2 1    
     2    1   67 1    
     3    1   68 1    
     4    1   69 1    
     5    2    3 2    
     6    2    4 am   BACKBONE|DICT|INTERRES
     7    4    5 1    
     8    4   70 1    
     9    5    6 1    
    10    5   65 1    
    11    5   71 1    
    12    6    7 1    
    13    6   72 1    
    14    6   73 1    
    15    7    8 1    
    16    8    9 1    
    17    8   74 1    
    18    8   75 1    
    19    9   10 ar   
    20    9   14 ar   
    21   10   11 ar   
    22   10   76 1    
    23   11   12 ar   
    24   11   48 1    
    25   12   13 ar   
    26   12   77 1    
    27   13   14 ar   
    28   13   15 1    
    29   14   78 1    
    30   15   16 1    
    31   15   79 1    
    32   15   80 1    
    33   16   17 1    
    34   17   18 1    
    35   17   81 1    
    36   17   82 1    
    37   18   19 1    
    38   18   22 1    
    39   18   83 1    
    40   19   20 am   BACKBONE|DICT|INTERRES
    41   19   21 2    
    42   20   84 1    
    43   20   85 1    
    44   22   23 am   BACKBONE|DICT|INTERRES
    45   22   86 1    
    46   23   24 2    
    47   23   25 1    
    48   25   26 1    
    49   25   27 1    
    50   25   87 1    
    51   26   88 1    
    52   26   89 1    
    53   26   90 1    
    54   27   28 am   BACKBONE|DICT|INTERRES
    55   27   91 1    
    56   28   29 2    
    57   28   30 1    
    58   30   31 1    
    59   30   32 1    
    60   30   92 1    
    61   31   93 1    
    62   31   94 1    
    63   31   95 1    
    64   32   33 am   BACKBONE|DICT|INTERRES
    65   32   96 1    
    66   33   34 2    
    67   33   35 1    
    68   35   36 1    
    69   35   37 1    
    70   35   97 1    
    71   36   98 1    
    72   36   99 1    
    73   36  100 1    
    74   37   38 am   BACKBONE|DICT|INTERRES
    75   37  101 1    
    76   38   39 2    
    77   38   40 1    
    78   40   41 1    
    79   40   42 1    
    80   40  102 1    
    81   41  103 1    
    82   41  104 1    
    83   41  105 1    
    84   42   43 am   BACKBONE|DICT|INTERRES
    85   42  106 1    
    86   43   44 2    
    87   43   45 1    
    88   45   46 1    
    89   45   49 1    
    90   45  107 1    
    91   46   47 1    
    92   46  108 1    
    93   46  109 1    
    94   47   48 1    
    95   48  110 1    
    96   48  111 1    
    97   49   50 am   BACKBONE|DICT|INTERRES
    98   49  112 1    
    99   50   51 2    
   100   50   52 1    
   101   52   53 1    
   102   52   54 1    
   103   52  113 1    
   104   53  114 1    
   105   53  115 1    
   106   53  116 1    
   107   54   55 am   BACKBONE|DICT|INTERRES
   108   54  117 1    
   109   55   56 2    
   110   55   57 1    
   111   57   58 1    
   112   57   59 1    
   113   57  118 1    
   114   58  119 1    
   115   58  120 1    
   116   58  121 1    
   117   59   60 am   BACKBONE|DICT|INTERRES
   118   59  122 1    
   119   60   61 2    
   120   60   62 1    
   121   62   63 1    
   122   62   64 1    
   123   62  123 1    
   124   63  124 1    
   125   63  125 1    
   126   63  126 1    
   127   64   65 am   BACKBONE|DICT|INTERRES
   128   64  127 1    
   129   65   66 2    
@<TRIPOS>SUBSTRUCTURE
     1 UNK         1 GROUP             0       ****    0 ROOT    
