@<TRIPOS>MOLECULE
3R135
127   129    1
SMALL
USER_CHARGES


@<TRIPOS>ATOM
      1 CA        -79.4244   24.0378  -70.5713 C.3       0 UNK        -0.1998 
      2 C         -80.3501   24.5619  -71.6590 C.2       0 UNK         0.4909 
      3 O         -81.0998   23.7855  -72.2514 O.2       0 UNK        -0.5240 
      4 N         -80.3043   25.8743  -71.9207 N.am      1 UNK        -0.4739 
      5 CA        -81.0714   26.5522  -72.9729 C.3       1 UNK         0.0864 
      6 C6        -81.0565   28.0917  -72.8003 C.3       11 UNK        -0.0881 
      7 S7        -81.7157   28.6029  -71.1761 S.3       11 UNK        -0.2682 
      8 C8        -80.8023   30.1534  -70.8615 C.3       11 UNK         0.0289 
      9 C9        -79.2809   30.0109  -70.8039 C.ar      11 UNK        -0.0687 
     10 C10       -78.6618   28.8567  -70.3036 C.ar      11 UNK        -0.0823 
     11 C11       -77.2678   28.7524  -70.2774 C.ar      11 UNK        -0.0830 
     12 C12       -76.4921   29.8361  -70.6898 C.ar      11 UNK        -0.1021 
     13 C13       -77.0909   30.9832  -71.2100 C.ar      11 UNK        -0.0753 
     14 C14       -78.4847   31.0677  -71.2600 C.ar      11 UNK        -0.0933 
     15 C15       -76.2235   32.1198  -71.7275 C.3       11 UNK         0.0166 
     16 S16       -75.9510   32.0250  -73.5288 S.3       11 UNK        -0.2615 
     17 C17       -75.0753   30.4359  -73.7746 C.3       11 UNK        -0.0865 
     18 CA        -73.5265   30.5771  -73.8515 C.3       10 UNK         0.0862 
     19 C         -72.8140   30.2059  -72.5143 C.2       10 UNK         0.5551 
     20 N         -71.8761   29.2648  -72.4873 N.am      10 UNK        -0.7319 
     21 O         -73.0957   30.8002  -71.4787 O.2       10 UNK        -0.5018 
     22 N         -72.9921   29.8581  -75.0168 N.am      10 UNK        -0.4509 
     23 C         -71.8932   30.2194  -75.6913 C.2       10 UNK         0.4899 
     24 O         -71.2569   31.2491  -75.4599 O.2       10 UNK        -0.4839 
     25 CA        -71.4304   29.2716  -76.8134 C.3       9 UNK         0.0222 
     26 CB        -69.9570   29.4924  -77.2182 C.3       9 UNK        -0.1966 
     27 N         -71.6834   27.8556  -76.5231 N.am      9 UNK        -0.4218 
     28 C         -71.1838   27.1216  -75.5146 C.2       9 UNK         0.5020 
     29 O         -70.4544   27.5870  -74.6375 O.2       9 UNK        -0.5274 
     30 CA        -71.5670   25.6269  -75.4481 C.3       8 UNK         0.0270 
     31 CB        -71.9644   25.2119  -74.0194 C.3       8 UNK        -0.1976 
     32 N         -72.6501   25.2743  -76.3695 N.am      8 UNK        -0.4313 
     33 C         -72.5012   24.9795  -77.6681 C.2       8 UNK         0.5041 
     34 O         -71.4079   24.8656  -78.2224 O.2       8 UNK        -0.5577 
     35 CA        -73.7876   24.8401  -78.5025 C.3       7 UNK         0.0284 
     36 CB        -74.1873   23.3614  -78.6284 C.3       7 UNK        -0.1958 
     37 N         -74.9172   25.6042  -77.9614 N.am      7 UNK        -0.4454 
     38 C         -74.9786   26.9405  -77.8680 C.2       7 UNK         0.5089 
     39 O         -74.0982   27.6930  -78.2837 O.2       7 UNK        -0.5125 
     40 CA        -76.1829   27.5284  -77.1095 C.3       6 UNK         0.0408 
     41 CB        -77.4307   27.5873  -78.0044 C.3       6 UNK        -0.1791 
     42 N         -76.4790   26.7805  -75.8833 N.am      6 UNK        -0.4762 
     43 C         -75.6607   26.7086  -74.8216 C.2       6 UNK         0.5007 
     44 O         -74.6067   27.3406  -74.7429 O.2       6 UNK        -0.5032 
     45 CA        -76.0489   25.7294  -73.6944 C.3       5 UNK         0.0783 
     46 C46       -76.7118   26.4419  -72.4855 C.3       11 UNK        -0.0857 
     47 S47       -75.5111   26.7910  -71.1573 S.3       11 UNK        -0.2512 
     48 C48       -76.5869   27.4629  -69.8425 C.3       11 UNK         0.0225 
     49 N         -76.8838   24.6382  -74.2059 N.am      5 UNK        -0.4615 
     50 C         -76.3980   23.5177  -74.7503 C.2       4 UNK         0.5053 
     51 O         -75.1954   23.2958  -74.8941 O.2       4 UNK        -0.5105 
     52 CA        -77.4210   22.4638  -75.2093 C.3       4 UNK         0.0263 
     53 CB        -78.0725   21.7810  -73.9950 C.3       4 UNK        -0.1981 
     54 N         -78.4715   22.9402  -76.1180 N.am      4 UNK        -0.4224 
     55 C         -78.2813   23.6039  -77.2677 C.2       3 UNK         0.4895 
     56 O         -77.2006   24.0704  -77.6163 O.2       3 UNK        -0.5091 
     57 CA        -79.4822   23.7538  -78.2207 C.3       3 UNK         0.0250 
     58 CB        -79.3248   22.7817  -79.4012 C.3       3 UNK        -0.1996 
     59 N         -80.7719   23.4958  -77.5728 N.am      3 UNK        -0.4254 
     60 C         -81.5226   24.3505  -76.8638 C.2       2 UNK         0.5004 
     61 O         -82.5674   23.9829  -76.3255 O.2       2 UNK        -0.5226 
     62 CA        -81.1184   25.8349  -76.7436 C.3       2 UNK         0.0269 
     63 CB        -81.8948   26.6908  -77.7570 C.3       2 UNK        -0.1926 
     64 N         -81.4074   26.3068  -75.3907 N.am      2 UNK        -0.4687 
     65 C         -80.5542   26.1613  -74.3716 C.2       1 UNK         0.5165 
     66 O         -79.3961   25.7592  -74.5148 O.2       1 UNK        -0.5079 
     67 H67       -79.9832   23.4221  -69.8669 H         1 UNK         0.0900 
     68 H68       -78.9547   24.8457  -70.0115 H         1 UNK         0.0900 
     69 H69       -78.6381   23.4248  -71.0109 H         1 UNK         0.0900 
     70 H70       -79.6716   26.4652  -71.4056 H         1 UNK         0.2959 
     71 H71       -82.1052   26.2070  -72.8982 H         1 UNK         0.1079 
     72 H72       -80.0427   28.4760  -72.9278 H         1 UNK         0.0837 
     73 H73       -81.6621   28.5742  -73.5699 H         1 UNK         0.0837 
     74 H74       -81.0837   30.8714  -71.6337 H         1 UNK         0.0685 
     75 H75       -81.1447   30.5702  -69.9137 H         1 UNK         0.0685 
     76 H76       -79.2646   28.0337  -69.9479 H         1 UNK         0.1434 
     77 H77       -75.4137   29.7628  -70.6543 H         1 UNK         0.1329 
     78 H78       -78.9482   31.9596  -71.6593 H         1 UNK         0.1335 
     79 H79       -76.7022   33.0733  -71.4997 H         1 UNK         0.0680 
     80 H80       -75.2653   32.1393  -71.2092 H         1 UNK         0.0680 
     81 H81       -75.4604   30.0476  -74.7187 H         1 UNK         0.1032 
     82 H82       -75.3789   29.6869  -73.0454 H         1 UNK         0.1032 
     83 H83       -73.3014   31.6342  -74.0045 H         1 UNK         0.0461 
     84 H84       -71.4258   29.0508  -71.6124 H         1 UNK         0.3453 
     85 H85       -71.5860   28.7857  -73.3308 H         1 UNK         0.3453 
     86 H86       -73.4297   28.9648  -75.2176 H         1 UNK         0.2984 
     87 H87       -72.0463   29.5139  -77.6804 H         1 UNK         0.0554 
     88 H88       -69.6620   28.8213  -78.0248 H         1 UNK         0.0847 
     89 H89       -69.2781   29.3294  -76.3805 H         1 UNK         0.0847 
     90 H90       -69.7960   30.5113  -77.5725 H         1 UNK         0.0847 
     91 H91       -72.3329   27.4084  -77.1601 H         1 UNK         0.3141 
     92 H92       -70.6765   25.0581  -75.7234 H         1 UNK         0.0743 
     93 H93       -72.7557   25.8439  -73.6175 H         1 UNK         0.0784 
     94 H94       -72.3064   24.1773  -73.9826 H         1 UNK         0.0784 
     95 H95       -71.1145   25.2952  -73.3408 H         1 UNK         0.0784 
     96 H96       -73.5902   25.3474  -76.0060 H         1 UNK         0.3213 
     97 H97       -73.5733   25.2253  -79.5016 H         1 UNK         0.0855 
     98 H98       -74.4484   22.9317  -77.6602 H         1 UNK         0.0814 
     99 H99       -73.3707   22.7679  -79.0418 H         1 UNK         0.0814 
    100 H100      -75.0450   23.2379  -79.2899 H         1 UNK         0.0814 
    101 H101      -75.7237   25.0588  -77.6555 H         1 UNK         0.3105 
    102 H102      -75.9277   28.5505  -76.8219 H         1 UNK         0.0547 
    103 H103      -77.2427   28.1970  -78.8891 H         1 UNK         0.0837 
    104 H104      -77.7319   26.5998  -78.3521 H         1 UNK         0.0837 
    105 H105      -78.2759   28.0327  -77.4793 H         1 UNK         0.0837 
    106 H106      -77.3198   26.2195  -75.8724 H         1 UNK         0.3020 
    107 H107      -75.1132   25.2830  -73.3504 H         1 UNK         0.1245 
    108 H108      -77.4776   25.8031  -72.0467 H         1 UNK         0.0781 
    109 H109      -77.2243   27.3607  -72.7792 H         1 UNK         0.0781 
    110 H110      -75.9820   27.6614  -68.9567 H         1 UNK         0.0836 
    111 H111      -77.3182   26.7070  -69.5541 H         1 UNK         0.0836 
    112 H112      -77.8893   24.8027  -74.2025 H         1 UNK         0.3022 
    113 H113      -76.8604   21.7028  -75.7562 H         1 UNK         0.0747 
    114 H114      -78.6597   20.9131  -74.2955 H         1 UNK         0.0793 
    115 H115      -77.3185   21.4298  -73.2890 H         1 UNK         0.0793 
    116 H116      -78.7335   22.4611  -73.4566 H         1 UNK         0.0793 
    117 H117      -79.4090   22.6291  -75.9104 H         1 UNK         0.3047 
    118 H118      -79.4648   24.7604  -78.6402 H         1 UNK         0.0822 
    119 H119      -80.1310   22.9021  -80.1252 H         1 UNK         0.0807 
    120 H120      -79.3200   21.7411  -79.0738 H         1 UNK         0.0807 
    121 H121      -78.3880   22.9593  -79.9320 H         1 UNK         0.0807 
    122 H122      -81.1096   22.5474  -77.6550 H         1 UNK         0.2946 
    123 H123      -80.0537   25.9721  -76.9298 H         1 UNK         0.1144 
    124 H124      -82.9733   26.6081  -77.6160 H         1 UNK         0.0793 
    125 H125      -81.6748   26.3793  -78.7790 H         1 UNK         0.0793 
    126 H126      -81.6255   27.7441  -77.6749 H         1 UNK         0.0793 
    127 H127      -82.3559   26.6033  -75.2091 H         1 UNK         0.2896 
@<TRIPOS>BOND
     1    1    2 1    
     2    1   67 1    
     3    1   68 1    
     4    1   69 1    
     5    2    3 2    
     6    2    4 am   BACKBONE|DICT|INTERRES
     7    4    5 1    
     8    4   70 1    
     9    5    6 1    
    10    5   65 1    
    11    5   71 1    
    12    6    7 1    
    13    6   72 1    
    14    6   73 1    
    15    7    8 1    
    16    8    9 1    
    17    8   74 1    
    18    8   75 1    
    19    9   10 ar   
    20    9   14 ar   
    21   10   11 ar   
    22   10   76 1    
    23   11   12 ar   
    24   11   48 1    
    25   12   13 ar   
    26   12   77 1    
    27   13   14 ar   
    28   13   15 1    
    29   14   78 1    
    30   15   16 1    
    31   15   79 1    
    32   15   80 1    
    33   16   17 1    
    34   17   18 1    
    35   17   81 1    
    36   17   82 1    
    37   18   19 1    
    38   18   22 1    
    39   18   83 1    
    40   19   20 am   BACKBONE|DICT|INTERRES
    41   19   21 2    
    42   20   84 1    
    43   20   85 1    
    44   22   23 am   BACKBONE|DICT|INTERRES
    45   22   86 1    
    46   23   24 2    
    47   23   25 1    
    48   25   26 1    
    49   25   27 1    
    50   25   87 1    
    51   26   88 1    
    52   26   89 1    
    53   26   90 1    
    54   27   28 am   BACKBONE|DICT|INTERRES
    55   27   91 1    
    56   28   29 2    
    57   28   30 1    
    58   30   31 1    
    59   30   32 1    
    60   30   92 1    
    61   31   93 1    
    62   31   94 1    
    63   31   95 1    
    64   32   33 am   BACKBONE|DICT|INTERRES
    65   32   96 1    
    66   33   34 2    
    67   33   35 1    
    68   35   36 1    
    69   35   37 1    
    70   35   97 1    
    71   36   98 1    
    72   36   99 1    
    73   36  100 1    
    74   37   38 am   BACKBONE|DICT|INTERRES
    75   37  101 1    
    76   38   39 2    
    77   38   40 1    
    78   40   41 1    
    79   40   42 1    
    80   40  102 1    
    81   41  103 1    
    82   41  104 1    
    83   41  105 1    
    84   42   43 am   BACKBONE|DICT|INTERRES
    85   42  106 1    
    86   43   44 2    
    87   43   45 1    
    88   45   46 1    
    89   45   49 1    
    90   45  107 1    
    91   46   47 1    
    92   46  108 1    
    93   46  109 1    
    94   47   48 1    
    95   48  110 1    
    96   48  111 1    
    97   49   50 am   BACKBONE|DICT|INTERRES
    98   49  112 1    
    99   50   51 2    
   100   50   52 1    
   101   52   53 1    
   102   52   54 1    
   103   52  113 1    
   104   53  114 1    
   105   53  115 1    
   106   53  116 1    
   107   54   55 am   BACKBONE|DICT|INTERRES
   108   54  117 1    
   109   55   56 2    
   110   55   57 1    
   111   57   58 1    
   112   57   59 1    
   113   57  118 1    
   114   58  119 1    
   115   58  120 1    
   116   58  121 1    
   117   59   60 am   BACKBONE|DICT|INTERRES
   118   59  122 1    
   119   60   61 2    
   120   60   62 1    
   121   62   63 1    
   122   62   64 1    
   123   62  123 1    
   124   63  124 1    
   125   63  125 1    
   126   63  126 1    
   127   64   65 am   BACKBONE|DICT|INTERRES
   128   64  127 1    
   129   65   66 2    
@<TRIPOS>SUBSTRUCTURE
     1 UNK         1 GROUP             0       ****    0 ROOT    
