@<TRIPOS>MOLECULE
3R135
127   129    1
SMALL
USER_CHARGES


@<TRIPOS>ATOM
      1 CA        -85.1385   25.2677  -73.1001 C.3       0 UNK        -0.1998 
      2 C         -83.6268   25.4365  -73.0903 C.2       0 UNK         0.4909 
      3 O         -82.9028   24.4405  -73.0743 O.2       0 UNK        -0.5240 
      4 N         -83.1497   26.6904  -73.1114 N.am      1 UNK        -0.4739 
      5 CA        -81.7317   27.0858  -73.0795 C.3       1 UNK         0.0864 
      6 C6        -81.0558   26.8062  -71.7046 C.3       11 UNK        -0.0881 
      7 S7        -81.5009   28.1105  -70.5077 S.3       11 UNK        -0.2682 
      8 C8        -79.9113   28.4444  -69.6643 C.3       11 UNK         0.0289 
      9 C9        -78.7300   28.8234  -70.5630 C.ar      11 UNK        -0.0687 
     10 C10       -78.8930   29.4456  -71.8090 C.ar      11 UNK        -0.0823 
     11 C11       -77.7852   29.7427  -72.6139 C.ar      11 UNK        -0.0830 
     12 C12       -76.5030   29.4508  -72.1444 C.ar      11 UNK        -0.1021 
     13 C13       -76.3214   28.8630  -70.8900 C.ar      11 UNK        -0.0753 
     14 C14       -77.4361   28.5463  -70.1103 C.ar      11 UNK        -0.0933 
     15 C15       -74.9184   28.5695  -70.3855 C.3       11 UNK         0.0166 
     16 S16       -74.0758   30.1008  -69.8742 S.3       11 UNK        -0.2615 
     17 C17       -72.3201   29.6100  -69.9957 C.3       11 UNK        -0.0865 
     18 CA        -71.5954   30.2612  -71.2131 C.3       10 UNK         0.0862 
     19 C         -70.0575   29.9969  -71.2020 C.2       10 UNK         0.5551 
     20 N         -69.4097   29.7927  -72.3428 N.am      10 UNK        -0.7319 
     21 O         -69.4323   30.0126  -70.1443 O.2       10 UNK        -0.5018 
     22 N         -72.2664   29.9932  -72.5006 N.am      10 UNK        -0.4509 
     23 C         -72.4315   28.7915  -73.0674 C.2       10 UNK         0.4899 
     24 O         -72.0139   27.7408  -72.5759 O.2       10 UNK        -0.4839 
     25 CA        -73.2462   28.7377  -74.3759 C.3       9 UNK         0.0222 
     26 CB        -73.3216   30.0780  -75.1434 C.3       9 UNK        -0.1966 
     27 N         -72.7992   27.6448  -75.2425 N.am      9 UNK        -0.4218 
     28 C         -71.5839   27.5095  -75.7943 C.2       9 UNK         0.5020 
     29 O         -70.7164   28.3846  -75.7616 O.2       9 UNK        -0.5274 
     30 CA        -71.2434   26.1705  -76.4644 C.3       8 UNK         0.0270 
     31 CB        -70.3887   25.3138  -75.5069 C.3       8 UNK        -0.1976 
     32 N         -72.4177   25.4127  -76.9135 N.am      8 UNK        -0.4313 
     33 C         -72.3642   24.4177  -77.8085 C.2       8 UNK         0.5041 
     34 O         -71.3343   24.0616  -78.3840 O.2       8 UNK        -0.5577 
     35 CA        -73.6785   23.6868  -78.1122 C.3       7 UNK         0.0284 
     36 CB        -74.0438   22.7245  -76.9714 C.3       7 UNK        -0.1958 
     37 N         -74.7844   24.6108  -78.3616 N.am      7 UNK        -0.4454 
     38 C         -74.9540   25.2883  -79.5054 C.2       7 UNK         0.5089 
     39 O         -74.1955   25.2028  -80.4718 O.2       7 UNK        -0.5125 
     40 CA        -76.1876   26.2004  -79.6053 C.3       6 UNK         0.0408 
     41 CB        -77.3289   25.4728  -80.3333 C.3       6 UNK        -0.1791 
     42 N         -76.6612   26.6675  -78.3000 N.am      6 UNK        -0.4762 
     43 C         -76.0850   27.6651  -77.6122 C.2       6 UNK         0.5007 
     44 O         -75.0944   28.2827  -78.0027 O.2       6 UNK        -0.5032 
     45 CA        -76.7204   28.0330  -76.2566 C.3       5 UNK         0.0783 
     46 C46       -77.9145   28.9974  -76.5005 C.3       11 UNK        -0.0857 
     47 S47       -78.9873   29.3524  -75.0712 S.3       11 UNK        -0.2512 
     48 C48       -77.9703   30.3934  -73.9801 C.3       11 UNK         0.0225 
     49 N         -77.0345   26.8574  -75.4289 N.am      5 UNK        -0.4615 
     50 C         -76.1400   25.9331  -75.0353 C.2       4 UNK         0.5053 
     51 O         -74.9682   25.8957  -75.4200 O.2       4 UNK        -0.5105 
     52 CA        -76.6267   24.8635  -74.0509 C.3       4 UNK         0.0263 
     53 CB        -76.8146   25.4677  -72.6481 C.3       4 UNK        -0.1981 
     54 N         -77.8801   24.2776  -74.5185 N.am      4 UNK        -0.4224 
     55 C         -77.9730   23.1783  -75.2795 C.2       3 UNK         0.4895 
     56 O         -77.0168   22.4552  -75.5552 O.2       3 UNK        -0.5091 
     57 CA        -79.3602   22.8175  -75.8470 C.3       3 UNK         0.0250 
     58 CB        -80.0560   21.7843  -74.9465 C.3       3 UNK        -0.1996 
     59 N         -80.2494   23.9671  -76.0312 N.am      3 UNK        -0.4254 
     60 C         -80.0102   25.0074  -76.8424 C.2       2 UNK         0.5004 
     61 O         -79.0276   25.0986  -77.5781 O.2       2 UNK        -0.5226 
     62 CA        -81.0024   26.1805  -76.7747 C.3       2 UNK         0.0269 
     63 CB        -82.1266   25.9888  -77.8044 C.3       2 UNK        -0.1926 
     64 N         -81.5924   26.4396  -75.4528 N.am      2 UNK        -0.4687 
     65 C         -80.9271   26.5684  -74.2925 C.2       1 UNK         0.5165 
     66 O         -79.7239   26.3347  -74.1769 O.2       1 UNK        -0.5079 
     67 H67       -85.6567   26.2263  -73.1196 H         1 UNK         0.0900 
     68 H68       -85.4602   24.7270  -72.2105 H         1 UNK         0.0900 
     69 H69       -85.4466   24.6972  -73.9758 H         1 UNK         0.0900 
     70 H70       -83.8052   27.4601  -73.1248 H         1 UNK         0.2959 
     71 H71       -81.7242   28.1661  -73.2349 H         1 UNK         0.1079 
     72 H72       -81.3478   25.8338  -71.3065 H         1 UNK         0.0837 
     73 H73       -79.9691   26.7709  -71.7803 H         1 UNK         0.0837 
     74 H74       -80.0672   29.2497  -68.9457 H         1 UNK         0.0685 
     75 H75       -79.6570   27.5579  -69.0810 H         1 UNK         0.0685 
     76 H76       -79.8832   29.6852  -72.1691 H         1 UNK         0.1434 
     77 H77       -75.6402   29.7011  -72.7434 H         1 UNK         0.1329 
     78 H78       -77.2949   28.0836  -69.1429 H         1 UNK         0.1335 
     79 H79       -74.3608   28.0661  -71.1732 H         1 UNK         0.0680 
     80 H80       -74.9428   27.8780  -69.5418 H         1 UNK         0.0680 
     81 H81       -72.2335   28.5228  -70.0271 H         1 UNK         0.1032 
     82 H82       -71.8398   29.9152  -69.0643 H         1 UNK         0.1032 
     83 H83       -71.6758   31.3410  -71.0826 H         1 UNK         0.0461 
     84 H84       -68.4145   29.6355  -72.3254 H         1 UNK         0.3453 
     85 H85       -69.9118   29.7622  -73.2166 H         1 UNK         0.3453 
     86 H86       -72.6292   30.8059  -72.9764 H         1 UNK         0.2984 
     87 H87       -74.2585   28.4666  -74.0789 H         1 UNK         0.0554 
     88 H88       -73.8759   30.8300  -74.5811 H         1 UNK         0.0847 
     89 H89       -73.8342   29.9569  -76.0977 H         1 UNK         0.0847 
     90 H90       -72.3318   30.4840  -75.3554 H         1 UNK         0.0847 
     91 H91       -73.4514   26.8666  -75.2817 H         1 UNK         0.3141 
     92 H92       -70.6415   26.4136  -77.3429 H         1 UNK         0.0743 
     93 H93       -70.9622   24.9987  -74.6343 H         1 UNK         0.0784 
     94 H94       -70.0049   24.4193  -75.9973 H         1 UNK         0.0784 
     95 H95       -69.5250   25.8731  -75.1442 H         1 UNK         0.0784 
     96 H96       -73.3181   25.6418  -76.5056 H         1 UNK         0.3213 
     97 H97       -73.5219   23.0874  -79.0121 H         1 UNK         0.0855 
     98 H98       -74.2737   23.2536  -76.0460 H         1 UNK         0.0814 
     99 H99       -73.2218   22.0394  -76.7596 H         1 UNK         0.0814 
    100 H100      -74.9094   22.1161  -77.2329 H         1 UNK         0.0814 
    101 H101      -75.4418   24.7638  -77.6101 H         1 UNK         0.3105 
    102 H102      -75.9095   27.0696  -80.2054 H         1 UNK         0.0547 
    103 H103      -77.0268   25.1848  -81.3410 H         1 UNK         0.0837 
    104 H104      -77.6258   24.5625  -79.8112 H         1 UNK         0.0837 
    105 H105      -78.2102   26.1074  -80.4275 H         1 UNK         0.0837 
    106 H106      -77.4754   26.1925  -77.9142 H         1 UNK         0.3020 
    107 H107      -75.9657   28.5924  -75.7034 H         1 UNK         0.1245 
    108 H108      -77.5519   29.9487  -76.8953 H         1 UNK         0.0781 
    109 H109      -78.5720   28.5938  -77.2727 H         1 UNK         0.0781 
    110 H110      -77.0087   30.6017  -74.4511 H         1 UNK         0.0836 
    111 H111      -78.4637   31.3576  -73.8511 H         1 UNK         0.0836 
    112 H112      -77.9749   26.8186  -75.0473 H         1 UNK         0.3022 
    113 H113      -75.8588   24.0900  -73.9823 H         1 UNK         0.0747 
    114 H114      -77.1512   24.7153  -71.9351 H         1 UNK         0.0793 
    115 H115      -75.8751   25.8746  -72.2717 H         1 UNK         0.0793 
    116 H116      -77.5414   26.2811  -72.6416 H         1 UNK         0.0793 
    117 H117      -78.7125   24.8458  -74.3739 H         1 UNK         0.3047 
    118 H118      -79.1994   22.3668  -76.8286 H         1 UNK         0.0822 
    119 H119      -80.9937   21.4423  -75.3850 H         1 UNK         0.0807 
    120 H120      -80.2760   22.1936  -73.9594 H         1 UNK         0.0807 
    121 H121      -79.4272   20.9043  -74.8029 H         1 UNK         0.0807 
    122 H122      -81.0694   24.0080  -75.4418 H         1 UNK         0.2946 
    123 H123      -80.4431   27.0769  -77.0480 H         1 UNK         0.1144 
    124 H124      -81.7186   25.8128  -78.8010 H         1 UNK         0.0793 
    125 H125      -82.7617   26.8724  -77.8695 H         1 UNK         0.0793 
    126 H126      -82.7599   25.1362  -77.5557 H         1 UNK         0.0793 
    127 H127      -82.5825   26.6378  -75.4389 H         1 UNK         0.2896 
@<TRIPOS>BOND
     1    1    2 1    
     2    1   67 1    
     3    1   68 1    
     4    1   69 1    
     5    2    3 2    
     6    2    4 am   BACKBONE|DICT|INTERRES
     7    4    5 1    
     8    4   70 1    
     9    5    6 1    
    10    5   65 1    
    11    5   71 1    
    12    6    7 1    
    13    6   72 1    
    14    6   73 1    
    15    7    8 1    
    16    8    9 1    
    17    8   74 1    
    18    8   75 1    
    19    9   10 ar   
    20    9   14 ar   
    21   10   11 ar   
    22   10   76 1    
    23   11   12 ar   
    24   11   48 1    
    25   12   13 ar   
    26   12   77 1    
    27   13   14 ar   
    28   13   15 1    
    29   14   78 1    
    30   15   16 1    
    31   15   79 1    
    32   15   80 1    
    33   16   17 1    
    34   17   18 1    
    35   17   81 1    
    36   17   82 1    
    37   18   19 1    
    38   18   22 1    
    39   18   83 1    
    40   19   20 am   BACKBONE|DICT|INTERRES
    41   19   21 2    
    42   20   84 1    
    43   20   85 1    
    44   22   23 am   BACKBONE|DICT|INTERRES
    45   22   86 1    
    46   23   24 2    
    47   23   25 1    
    48   25   26 1    
    49   25   27 1    
    50   25   87 1    
    51   26   88 1    
    52   26   89 1    
    53   26   90 1    
    54   27   28 am   BACKBONE|DICT|INTERRES
    55   27   91 1    
    56   28   29 2    
    57   28   30 1    
    58   30   31 1    
    59   30   32 1    
    60   30   92 1    
    61   31   93 1    
    62   31   94 1    
    63   31   95 1    
    64   32   33 am   BACKBONE|DICT|INTERRES
    65   32   96 1    
    66   33   34 2    
    67   33   35 1    
    68   35   36 1    
    69   35   37 1    
    70   35   97 1    
    71   36   98 1    
    72   36   99 1    
    73   36  100 1    
    74   37   38 am   BACKBONE|DICT|INTERRES
    75   37  101 1    
    76   38   39 2    
    77   38   40 1    
    78   40   41 1    
    79   40   42 1    
    80   40  102 1    
    81   41  103 1    
    82   41  104 1    
    83   41  105 1    
    84   42   43 am   BACKBONE|DICT|INTERRES
    85   42  106 1    
    86   43   44 2    
    87   43   45 1    
    88   45   46 1    
    89   45   49 1    
    90   45  107 1    
    91   46   47 1    
    92   46  108 1    
    93   46  109 1    
    94   47   48 1    
    95   48  110 1    
    96   48  111 1    
    97   49   50 am   BACKBONE|DICT|INTERRES
    98   49  112 1    
    99   50   51 2    
   100   50   52 1    
   101   52   53 1    
   102   52   54 1    
   103   52  113 1    
   104   53  114 1    
   105   53  115 1    
   106   53  116 1    
   107   54   55 am   BACKBONE|DICT|INTERRES
   108   54  117 1    
   109   55   56 2    
   110   55   57 1    
   111   57   58 1    
   112   57   59 1    
   113   57  118 1    
   114   58  119 1    
   115   58  120 1    
   116   58  121 1    
   117   59   60 am   BACKBONE|DICT|INTERRES
   118   59  122 1    
   119   60   61 2    
   120   60   62 1    
   121   62   63 1    
   122   62   64 1    
   123   62  123 1    
   124   63  124 1    
   125   63  125 1    
   126   63  126 1    
   127   64   65 am   BACKBONE|DICT|INTERRES
   128   64  127 1    
   129   65   66 2    
@<TRIPOS>SUBSTRUCTURE
     1 UNK         1 GROUP             0       ****    0 ROOT    
