@<TRIPOS>MOLECULE
3R135
127   129    1
SMALL
USER_CHARGES


@<TRIPOS>ATOM
      1 CA        -81.4238   25.2208  -70.0526 C.3       0 UNK        -0.1998 
      2 C         -82.5235   25.6406  -71.0148 C.2       0 UNK         0.4909 
      3 O         -83.5344   24.9469  -71.1282 O.2       0 UNK        -0.5240 
      4 N         -82.3396   26.7761  -71.7015 N.am      1 UNK        -0.4739 
      5 CA        -83.2832   27.3178  -72.6883 C.3       1 UNK         0.0864 
      6 C6        -83.0371   28.8248  -72.9631 C.3       11 UNK        -0.0881 
      7 S7        -81.3496   29.1999  -73.5566 S.3       11 UNK        -0.2682 
      8 C8        -80.5705   29.9080  -72.0718 C.3       11 UNK         0.0289 
      9 C9        -79.0893   29.5719  -72.0543 C.ar      11 UNK        -0.0687 
     10 C10       -78.6283   28.4768  -71.3182 C.ar      11 UNK        -0.0823 
     11 C11       -77.2815   28.1060  -71.3654 C.ar      11 UNK        -0.0830 
     12 C12       -76.3922   28.8674  -72.1294 C.ar      11 UNK        -0.1021 
     13 C13       -76.8285   29.9957  -72.8363 C.ar      11 UNK        -0.0753 
     14 C14       -78.1846   30.3338  -72.8000 C.ar      11 UNK        -0.0933 
     15 C15       -75.8633   30.8358  -73.6730 C.3       11 UNK         0.0166 
     16 S16       -74.2253   31.0303  -72.8983 S.3       11 UNK        -0.2615 
     17 C17       -73.2865   31.8860  -74.2109 C.3       11 UNK        -0.0865 
     18 CA        -72.7334   30.9572  -75.3366 C.3       10 UNK         0.0862 
     19 C         -71.8679   31.7427  -76.3671 C.2       10 UNK         0.5551 
     20 N         -70.7264   31.2322  -76.8157 N.am      10 UNK        -0.7319 
     21 O         -72.2544   32.8286  -76.7928 O.2       10 UNK        -0.5018 
     22 N         -72.1223   29.7057  -74.8589 N.am      10 UNK        -0.4509 
     23 C         -71.1169   29.5837  -73.9838 C.2       10 UNK         0.4899 
     24 O         -70.5629   30.5285  -73.4209 O.2       10 UNK        -0.4839 
     25 CA        -70.6308   28.1522  -73.7026 C.3       9 UNK         0.0222 
     26 CB        -71.5712   27.4570  -72.7040 C.3       9 UNK        -0.1966 
     27 N         -70.4978   27.3196  -74.9024 N.am      9 UNK        -0.4218 
     28 C         -69.7475   27.5873  -75.9793 C.2       9 UNK         0.5020 
     29 O         -69.0919   28.6211  -76.1173 O.2       9 UNK        -0.5274 
     30 CA        -69.7236   26.5360  -77.1060 C.3       8 UNK         0.0270 
     31 CB        -68.7582   25.3811  -76.7729 C.3       8 UNK        -0.1976 
     32 N         -71.0499   26.0424  -77.5056 N.am      8 UNK        -0.4313 
     33 C         -71.9286   25.3211  -76.7957 C.2       8 UNK         0.5041 
     34 O         -71.7200   24.8958  -75.6568 O.2       8 UNK        -0.5577 
     35 CA        -73.2975   25.0849  -77.4579 C.3       7 UNK         0.0284 
     36 CB        -73.5764   23.5791  -77.6029 C.3       7 UNK        -0.1958 
     37 N         -74.4029   25.7100  -76.7238 N.am      7 UNK        -0.4454 
     38 C         -74.4556   26.9689  -76.2636 C.2       7 UNK         0.5089 
     39 O         -73.5623   27.8018  -76.4206 O.2       7 UNK        -0.5125 
     40 CA        -75.7244   27.3935  -75.5068 C.3       6 UNK         0.0408 
     41 CB        -76.6729   28.1706  -76.4317 C.3       6 UNK        -0.1791 
     42 N         -76.4588   26.2920  -74.8833 N.am      6 UNK        -0.4762 
     43 C         -76.0376   25.5979  -73.8154 C.2       6 UNK         0.5007 
     44 O         -74.9430   25.7585  -73.2760 O.2       6 UNK        -0.5032 
     45 CA        -77.0192   24.5453  -73.2676 C.3       5 UNK         0.0783 
     46 C46       -78.1645   25.2121  -72.4609 C.3       11 UNK        -0.0857 
     47 S47       -77.8044   25.4017  -70.6822 S.3       11 UNK        -0.2512 
     48 C48       -76.7604   26.9008  -70.5857 C.3       11 UNK         0.0225 
     49 N         -77.5441   23.7371  -74.3694 N.am      5 UNK        -0.4615 
     50 C         -76.8739   22.7424  -74.9676 C.2       4 UNK         0.5053 
     51 O         -75.7848   22.3230  -74.5773 O.2       4 UNK        -0.5105 
     52 CA        -77.5139   22.1083  -76.2180 C.3       4 UNK         0.0263 
     53 CB        -78.2698   20.8243  -75.8402 C.3       4 UNK        -0.1981 
     54 N         -78.4229   23.0078  -76.9342 N.am      4 UNK        -0.4224 
     55 C         -78.0543   24.1432  -77.5449 C.2       3 UNK         0.4895 
     56 O         -76.8890   24.5251  -77.6292 O.2       3 UNK        -0.5091 
     57 CA        -79.1753   25.0330  -78.1097 C.3       3 UNK         0.0250 
     58 CB        -79.4073   24.7223  -79.5967 C.3       3 UNK        -0.1996 
     59 N         -80.4477   24.9331  -77.3840 N.am      3 UNK        -0.4254 
     60 C         -80.6195   25.2106  -76.0838 C.2       2 UNK         0.5004 
     61 O         -79.7049   25.5394  -75.3217 O.2       2 UNK        -0.5226 
     62 CA        -82.0375   25.0237  -75.5367 C.3       2 UNK         0.0269 
     63 CB        -82.2892   23.5494  -75.1743 C.3       2 UNK        -0.1926 
     64 N         -82.2037   25.8465  -74.3435 N.am      2 UNK        -0.4687 
     65 C         -83.3247   26.4894  -73.9924 C.2       1 UNK         0.5165 
     66 O         -84.3703   26.4405  -74.6429 O.2       1 UNK        -0.5079 
     67 H67       -80.8804   24.3653  -70.4530 H         1 UNK         0.0900 
     68 H68       -81.8521   24.9335  -69.0928 H         1 UNK         0.0900 
     69 H69       -80.7122   26.0257  -69.8728 H         1 UNK         0.0900 
     70 H70       -81.4861   27.3017  -71.5879 H         1 UNK         0.2959 
     71 H71       -84.2826   27.2347  -72.2544 H         1 UNK         0.1079 
     72 H72       -83.2410   29.4010  -72.0594 H         1 UNK         0.0837 
     73 H73       -83.7492   29.1957  -73.7030 H         1 UNK         0.0837 
     74 H74       -80.7162   30.9893  -72.0653 H         1 UNK         0.0685 
     75 H75       -81.0498   29.5258  -71.1694 H         1 UNK         0.0685 
     76 H76       -79.3207   27.8943  -70.7282 H         1 UNK         0.1434 
     77 H77       -75.3510   28.5781  -72.1724 H         1 UNK         0.1329 
     78 H78       -78.5442   31.1812  -73.3677 H         1 UNK         0.1335 
     79 H79       -75.7480   30.3734  -74.6525 H         1 UNK         0.0680 
     80 H80       -76.2797   31.8295  -73.8452 H         1 UNK         0.0680 
     81 H81       -72.4628   32.4143  -73.7278 H         1 UNK         0.1032 
     82 H82       -73.9207   32.6640  -74.6400 H         1 UNK         0.1032 
     83 H83       -73.5962   30.6225  -75.9132 H         1 UNK         0.0461 
     84 H84       -70.3776   30.3500  -76.4635 H         1 UNK         0.3453 
     85 H85       -70.1870   31.7513  -77.4899 H         1 UNK         0.3453 
     86 H86       -72.4904   28.8675  -75.3025 H         1 UNK         0.2984 
     87 H87       -69.6409   28.2227  -73.2476 H         1 UNK         0.0554 
     88 H88       -71.6843   28.0492  -71.7948 H         1 UNK         0.0847 
     89 H89       -72.5682   27.3117  -73.1234 H         1 UNK         0.0847 
     90 H90       -71.1879   26.4801  -72.4093 H         1 UNK         0.0847 
     91 H91       -71.0129   26.4402  -74.9200 H         1 UNK         0.3141 
     92 H92       -69.3266   27.0410  -77.9883 H         1 UNK         0.0743 
     93 H93       -67.7540   25.7598  -76.5778 H         1 UNK         0.0784 
     94 H94       -69.0705   24.8261  -75.8879 H         1 UNK         0.0784 
     95 H95       -68.6833   24.6763  -77.6010 H         1 UNK         0.0784 
     96 H96       -71.3587   26.3754  -78.4090 H         1 UNK         0.3213 
     97 H97       -73.2889   25.5249  -78.4569 H         1 UNK         0.0855 
     98 H98       -72.7602   23.0773  -78.1243 H         1 UNK         0.0814 
     99 H99       -74.4857   23.3951  -78.1750 H         1 UNK         0.0814 
    100 H100      -73.6892   23.0970  -76.6306 H         1 UNK         0.0814 
    101 H101      -75.2409   25.1479  -76.6224 H         1 UNK         0.3105 
    102 H102      -75.4002   28.0627  -74.7093 H         1 UNK         0.0547 
    103 H103      -76.1678   29.0292  -76.8761 H         1 UNK         0.0837 
    104 H104      -77.0356   27.5476  -77.2495 H         1 UNK         0.0837 
    105 H105      -77.5370   28.5502  -75.8854 H         1 UNK         0.0837 
    106 H106      -77.3784   26.0887  -75.2539 H         1 UNK         0.3020 
    107 H107      -76.4595   23.8827  -72.6028 H         1 UNK         0.1245 
    108 H108      -79.0542   24.5816  -72.5058 H         1 UNK         0.0781 
    109 H109      -78.4806   26.1621  -72.8955 H         1 UNK         0.0781 
    110 H110      -75.7540   26.6382  -70.9132 H         1 UNK         0.0836 
    111 H111      -76.6662   27.1858  -69.5373 H         1 UNK         0.0836 
    112 H112      -78.4166   24.0584  -74.7735 H         1 UNK         0.3022 
    113 H113      -76.7026   21.8428  -76.8994 H         1 UNK         0.0747 
    114 H114      -78.6576   20.3167  -76.7237 H         1 UNK         0.0793 
    115 H115      -77.6118   20.1208  -75.3280 H         1 UNK         0.0793 
    116 H116      -79.1086   21.0301  -75.1738 H         1 UNK         0.0793 
    117 H117      -79.4039   22.7708  -76.9207 H         1 UNK         0.3047 
    118 H118      -78.8366   26.0675  -78.0272 H         1 UNK         0.0822 
    119 H119      -80.1232   25.4144  -80.0408 H         1 UNK         0.0807 
    120 H120      -79.7817   23.7086  -79.7452 H         1 UNK         0.0807 
    121 H121      -78.4793   24.8131  -80.1635 H         1 UNK         0.0807 
    122 H122      -81.2503   24.6510  -77.9290 H         1 UNK         0.2946 
    123 H123      -82.7458   25.3401  -76.3063 H         1 UNK         0.1144 
    124 H124      -83.2971   23.4058  -74.7841 H         1 UNK         0.0793 
    125 H125      -81.5868   23.1951  -74.4186 H         1 UNK         0.0793 
    126 H126      -82.1869   22.9036  -76.0472 H         1 UNK         0.0793 
    127 H127      -81.3592   25.9988  -73.8077 H         1 UNK         0.2896 
@<TRIPOS>BOND
     1    1    2 1    
     2    1   67 1    
     3    1   68 1    
     4    1   69 1    
     5    2    3 2    
     6    2    4 am   BACKBONE|DICT|INTERRES
     7    4    5 1    
     8    4   70 1    
     9    5    6 1    
    10    5   65 1    
    11    5   71 1    
    12    6    7 1    
    13    6   72 1    
    14    6   73 1    
    15    7    8 1    
    16    8    9 1    
    17    8   74 1    
    18    8   75 1    
    19    9   10 ar   
    20    9   14 ar   
    21   10   11 ar   
    22   10   76 1    
    23   11   12 ar   
    24   11   48 1    
    25   12   13 ar   
    26   12   77 1    
    27   13   14 ar   
    28   13   15 1    
    29   14   78 1    
    30   15   16 1    
    31   15   79 1    
    32   15   80 1    
    33   16   17 1    
    34   17   18 1    
    35   17   81 1    
    36   17   82 1    
    37   18   19 1    
    38   18   22 1    
    39   18   83 1    
    40   19   20 am   BACKBONE|DICT|INTERRES
    41   19   21 2    
    42   20   84 1    
    43   20   85 1    
    44   22   23 am   BACKBONE|DICT|INTERRES
    45   22   86 1    
    46   23   24 2    
    47   23   25 1    
    48   25   26 1    
    49   25   27 1    
    50   25   87 1    
    51   26   88 1    
    52   26   89 1    
    53   26   90 1    
    54   27   28 am   BACKBONE|DICT|INTERRES
    55   27   91 1    
    56   28   29 2    
    57   28   30 1    
    58   30   31 1    
    59   30   32 1    
    60   30   92 1    
    61   31   93 1    
    62   31   94 1    
    63   31   95 1    
    64   32   33 am   BACKBONE|DICT|INTERRES
    65   32   96 1    
    66   33   34 2    
    67   33   35 1    
    68   35   36 1    
    69   35   37 1    
    70   35   97 1    
    71   36   98 1    
    72   36   99 1    
    73   36  100 1    
    74   37   38 am   BACKBONE|DICT|INTERRES
    75   37  101 1    
    76   38   39 2    
    77   38   40 1    
    78   40   41 1    
    79   40   42 1    
    80   40  102 1    
    81   41  103 1    
    82   41  104 1    
    83   41  105 1    
    84   42   43 am   BACKBONE|DICT|INTERRES
    85   42  106 1    
    86   43   44 2    
    87   43   45 1    
    88   45   46 1    
    89   45   49 1    
    90   45  107 1    
    91   46   47 1    
    92   46  108 1    
    93   46  109 1    
    94   47   48 1    
    95   48  110 1    
    96   48  111 1    
    97   49   50 am   BACKBONE|DICT|INTERRES
    98   49  112 1    
    99   50   51 2    
   100   50   52 1    
   101   52   53 1    
   102   52   54 1    
   103   52  113 1    
   104   53  114 1    
   105   53  115 1    
   106   53  116 1    
   107   54   55 am   BACKBONE|DICT|INTERRES
   108   54  117 1    
   109   55   56 2    
   110   55   57 1    
   111   57   58 1    
   112   57   59 1    
   113   57  118 1    
   114   58  119 1    
   115   58  120 1    
   116   58  121 1    
   117   59   60 am   BACKBONE|DICT|INTERRES
   118   59  122 1    
   119   60   61 2    
   120   60   62 1    
   121   62   63 1    
   122   62   64 1    
   123   62  123 1    
   124   63  124 1    
   125   63  125 1    
   126   63  126 1    
   127   64   65 am   BACKBONE|DICT|INTERRES
   128   64  127 1    
   129   65   66 2    
@<TRIPOS>SUBSTRUCTURE
     1 UNK         1 GROUP             0       ****    0 ROOT    
