@<TRIPOS>MOLECULE
3R135
127   129    1
SMALL
USER_CHARGES


@<TRIPOS>ATOM
      1 CA        -84.0144   26.8138  -73.0357 C.3       0 UNK        -0.1998 
      2 C         -82.6514   26.6314  -72.3742 C.2       0 UNK         0.4909 
      3 O         -82.5189   25.7951  -71.4836 O.2       0 UNK        -0.5240 
      4 N         -81.6116   27.3819  -72.7633 N.am      1 UNK        -0.4739 
      5 CA        -81.6009   28.4031  -73.8211 C.3       1 UNK         0.0864 
      6 C6        -80.5247   29.4829  -73.5440 C.3       11 UNK        -0.0881 
      7 S7        -81.0875   30.7253  -72.3252 S.3       11 UNK        -0.2682 
      8 C8        -80.7139   29.9709  -70.7064 C.3       11 UNK         0.0289 
      9 C9        -79.2579   29.5511  -70.5790 C.ar      11 UNK        -0.0687 
     10 C10       -78.9272   28.1970  -70.4963 C.ar      11 UNK        -0.0823 
     11 C11       -77.5897   27.7927  -70.4584 C.ar      11 UNK        -0.0830 
     12 C12       -76.5807   28.7608  -70.4389 C.ar      11 UNK        -0.1021 
     13 C13       -76.9002   30.1212  -70.4953 C.ar      11 UNK        -0.0753 
     14 C14       -78.2413   30.5099  -70.5681 C.ar      11 UNK        -0.0933 
     15 C15       -75.8019   31.1738  -70.4869 C.3       11 UNK         0.0166 
     16 S16       -74.9129   31.2291  -72.0760 S.3       11 UNK        -0.2615 
     17 C17       -73.3840   30.3205  -71.6634 C.3       11 UNK        -0.0865 
     18 CA        -72.2704   30.5444  -72.7204 C.3       10 UNK         0.0862 
     19 C         -70.8746   30.0934  -72.1901 C.2       10 UNK         0.5551 
     20 N         -70.1139   29.2617  -72.8919 N.am      10 UNK        -0.7319 
     21 O         -70.4640   30.5200  -71.1135 O.2       10 UNK        -0.5018 
     22 N         -72.6465   29.9632  -74.0189 N.am      10 UNK        -0.4509 
     23 C         -72.1884   30.3717  -75.2078 C.2       10 UNK         0.4899 
     24 O         -71.4642   31.3563  -75.3648 O.2       10 UNK        -0.4839 
     25 CA        -72.5930   29.5006  -76.4134 C.3       9 UNK         0.0222 
     26 CB        -71.8171   29.8504  -77.7003 C.3       9 UNK        -0.1966 
     27 N         -72.4954   28.0632  -76.1269 N.am      9 UNK        -0.4218 
     28 C         -71.4078   27.3832  -75.7301 C.2       9 UNK         0.5020 
     29 O         -70.3075   27.8982  -75.5280 O.2       9 UNK        -0.5274 
     30 CA        -71.5779   25.8746  -75.4855 C.3       8 UNK         0.0270 
     31 CB        -71.9986   25.6195  -74.0288 C.3       8 UNK        -0.1976 
     32 N         -72.5410   25.2493  -76.3958 N.am      8 UNK        -0.4313 
     33 C         -72.3488   25.0939  -77.7145 C.2       8 UNK         0.5041 
     34 O         -71.3006   25.3820  -78.2938 O.2       8 UNK        -0.5577 
     35 CA        -73.5329   24.5488  -78.5320 C.3       7 UNK         0.0284 
     36 CB        -73.6221   23.0190  -78.4153 C.3       7 UNK        -0.1958 
     37 N         -74.8092   25.1526  -78.1418 N.am      7 UNK        -0.4454 
     38 C         -75.1211   26.4471  -78.3026 C.2       7 UNK         0.5089 
     39 O         -74.3970   27.2652  -78.8687 O.2       7 UNK        -0.5125 
     40 CA        -76.4507   26.9204  -77.6938 C.3       6 UNK         0.0408 
     41 CB        -77.6186   26.6808  -78.6629 C.3       6 UNK        -0.1791 
     42 N         -76.7283   26.2789  -76.4073 N.am      6 UNK        -0.4762 
     43 C         -76.0580   26.5343  -75.2738 C.2       6 UNK         0.5007 
     44 O         -75.1560   27.3676  -75.1838 O.2       6 UNK        -0.5032 
     45 CA        -76.4323   25.6836  -74.0462 C.3       5 UNK         0.0783 
     46 C46       -77.6323   26.3115  -73.3034 C.3       11 UNK        -0.0857 
     47 S47       -78.0941   25.3866  -71.7972 S.3       11 UNK        -0.2512 
     48 C48       -77.2297   26.3117  -70.4790 C.3       11 UNK         0.0225 
     49 N         -76.6671   24.2852  -74.4183 N.am      5 UNK        -0.4615 
     50 C         -75.7025   23.4492  -74.8257 C.2       4 UNK         0.5053 
     51 O         -74.5204   23.7736  -74.9263 O.2       4 UNK        -0.5105 
     52 CA        -76.1235   22.0275  -75.2329 C.3       4 UNK         0.0263 
     53 CB        -76.1161   21.0971  -74.0102 C.3       4 UNK        -0.1981 
     54 N         -77.4327   21.9648  -75.8865 N.am      4 UNK        -0.4224 
     55 C         -77.7716   22.6195  -77.0058 C.2       3 UNK         0.4895 
     56 O         -77.0031   23.3547  -77.6272 O.2       3 UNK        -0.5091 
     57 CA        -79.2185   22.4642  -77.5073 C.3       3 UNK         0.0250 
     58 CB        -80.0172   21.3424  -76.8032 C.3       3 UNK        -0.1996 
     59 N         -79.9583   23.7304  -77.4426 N.am      3 UNK        -0.4254 
     60 C         -80.1597   24.4946  -76.3585 C.2       2 UNK         0.5004 
     61 O         -79.6780   24.2634  -75.2454 O.2       2 UNK        -0.5226 
     62 CA        -81.0665   25.7164  -76.5570 C.3       2 UNK         0.0269 
     63 CB        -82.4937   25.2956  -76.9656 C.3       2 UNK        -0.1926 
     64 N         -81.1275   26.4896  -75.3185 N.am      2 UNK        -0.4687 
     65 C         -81.4429   27.7878  -75.2306 C.2       1 UNK         0.5165 
     66 O         -81.6479   28.4965  -76.2167 O.2       1 UNK        -0.5079 
     67 H67       -83.9531   26.6760  -74.1145 H         1 UNK         0.0900 
     68 H68       -84.7248   26.0819  -72.6515 H         1 UNK         0.0900 
     69 H69       -84.4157   27.8049  -72.8265 H         1 UNK         0.0900 
     70 H70       -80.7211   27.2229  -72.3165 H         1 UNK         0.2959 
     71 H71       -82.5691   28.9070  -73.8385 H         1 UNK         0.1079 
     72 H72       -80.2971   30.0462  -74.4514 H         1 UNK         0.0837 
     73 H73       -79.5775   29.0365  -73.2383 H         1 UNK         0.0837 
     74 H74       -81.3817   29.1236  -70.5454 H         1 UNK         0.0685 
     75 H75       -80.9464   30.6920  -69.9217 H         1 UNK         0.0685 
     76 H76       -79.7090   27.4503  -70.4970 H         1 UNK         0.1434 
     77 H77       -75.5440   28.4579  -70.3992 H         1 UNK         0.1329 
     78 H78       -78.4981   31.5585  -70.6327 H         1 UNK         0.1335 
     79 H79       -76.2261   32.1612  -70.2981 H         1 UNK         0.0680 
     80 H80       -75.1150   30.9814  -69.6619 H         1 UNK         0.0680 
     81 H81       -73.6071   29.2578  -71.5587 H         1 UNK         0.1032 
     82 H82       -73.0494   30.6617  -70.6818 H         1 UNK         0.1032 
     83 H83       -72.1760   31.6231  -72.8600 H         1 UNK         0.0461 
     84 H84       -69.2156   28.9966  -72.5210 H         1 UNK         0.3453 
     85 H85       -70.3923   28.9273  -73.8072 H         1 UNK         0.3453 
     86 H86       -73.2439   29.1496  -73.9893 H         1 UNK         0.2984 
     87 H87       -73.6491   29.7024  -76.5983 H         1 UNK         0.0554 
     88 H88       -71.9775   30.8911  -77.9841 H         1 UNK         0.0847 
     89 H89       -72.1436   29.2324  -78.5371 H         1 UNK         0.0847 
     90 H90       -70.7430   29.7076  -77.5771 H         1 UNK         0.0847 
     91 H91       -73.3761   27.5603  -76.1615 H         1 UNK         0.3141 
     92 H92       -70.6066   25.4024  -75.6476 H         1 UNK         0.0743 
     93 H93       -71.2875   26.0655  -73.3318 H         1 UNK         0.0784 
     94 H94       -72.9795   26.0432  -73.8110 H         1 UNK         0.0784 
     95 H95       -72.0399   24.5522  -73.8100 H         1 UNK         0.0784 
     96 H96       -73.3973   24.8914  -75.9782 H         1 UNK         0.3213 
     97 H97       -73.3563   24.7994  -79.5803 H         1 UNK         0.0855 
     98 H98       -73.7708   22.7001  -77.3841 H         1 UNK         0.0814 
     99 H99       -72.7047   22.5485  -78.7715 H         1 UNK         0.0814 
    100 H100      -74.4441   22.6216  -79.0112 H         1 UNK         0.0814 
    101 H101      -75.5104   24.5345  -77.7404 H         1 UNK         0.3105 
    102 H102      -76.3714   27.9967  -77.5251 H         1 UNK         0.0547 
    103 H103      -78.5415   27.1168  -78.2824 H         1 UNK         0.0837 
    104 H104      -77.7916   25.6194  -78.8415 H         1 UNK         0.0837 
    105 H105      -77.4210   27.1443  -79.6305 H         1 UNK         0.0837 
    106 H106      -77.4018   25.5256  -76.4052 H         1 UNK         0.3020 
    107 H107      -75.5730   25.7065  -73.3718 H         1 UNK         0.1245 
    108 H108      -78.5084   26.3410  -73.9525 H         1 UNK         0.0781 
    109 H109      -77.4194   27.3514  -73.0515 H         1 UNK         0.0781 
    110 H110      -76.1549   26.1757  -70.6086 H         1 UNK         0.0836 
    111 H111      -77.4829   25.8722  -69.5134 H         1 UNK         0.0836 
    112 H112      -77.6294   23.9680  -74.3955 H         1 UNK         0.3022 
    113 H113      -75.3854   21.6574  -75.9466 H         1 UNK         0.0747 
    114 H114      -76.3214   20.0648  -74.2944 H         1 UNK         0.0793 
    115 H115      -75.1421   21.1079  -73.5185 H         1 UNK         0.0793 
    116 H116      -76.8584   21.3972  -73.2693 H         1 UNK         0.0793 
    117 H117      -78.1416   21.4092  -75.4305 H         1 UNK         0.3047 
    118 H118      -79.1417   22.2006  -78.5634 H         1 UNK         0.0822 
    119 H119      -80.9980   21.2191  -77.2628 H         1 UNK         0.0807 
    120 H120      -80.1795   21.5486  -75.7445 H         1 UNK         0.0807 
    121 H121      -79.5082   20.3809  -76.8849 H         1 UNK         0.0807 
    122 H122      -80.3693   24.0284  -78.3163 H         1 UNK         0.2946 
    123 H123      -80.6284   26.3328  -77.3446 H         1 UNK         0.1144 
    124 H124      -82.9552   24.6596  -76.2091 H         1 UNK         0.0793 
    125 H125      -82.4968   24.7415  -77.9047 H         1 UNK         0.0793 
    126 H126      -83.1393   26.1621  -77.1097 H         1 UNK         0.0793 
    127 H127      -80.9109   25.9639  -74.4803 H         1 UNK         0.2896 
@<TRIPOS>BOND
     1    1    2 1    
     2    1   67 1    
     3    1   68 1    
     4    1   69 1    
     5    2    3 2    
     6    2    4 am   BACKBONE|DICT|INTERRES
     7    4    5 1    
     8    4   70 1    
     9    5    6 1    
    10    5   65 1    
    11    5   71 1    
    12    6    7 1    
    13    6   72 1    
    14    6   73 1    
    15    7    8 1    
    16    8    9 1    
    17    8   74 1    
    18    8   75 1    
    19    9   10 ar   
    20    9   14 ar   
    21   10   11 ar   
    22   10   76 1    
    23   11   12 ar   
    24   11   48 1    
    25   12   13 ar   
    26   12   77 1    
    27   13   14 ar   
    28   13   15 1    
    29   14   78 1    
    30   15   16 1    
    31   15   79 1    
    32   15   80 1    
    33   16   17 1    
    34   17   18 1    
    35   17   81 1    
    36   17   82 1    
    37   18   19 1    
    38   18   22 1    
    39   18   83 1    
    40   19   20 am   BACKBONE|DICT|INTERRES
    41   19   21 2    
    42   20   84 1    
    43   20   85 1    
    44   22   23 am   BACKBONE|DICT|INTERRES
    45   22   86 1    
    46   23   24 2    
    47   23   25 1    
    48   25   26 1    
    49   25   27 1    
    50   25   87 1    
    51   26   88 1    
    52   26   89 1    
    53   26   90 1    
    54   27   28 am   BACKBONE|DICT|INTERRES
    55   27   91 1    
    56   28   29 2    
    57   28   30 1    
    58   30   31 1    
    59   30   32 1    
    60   30   92 1    
    61   31   93 1    
    62   31   94 1    
    63   31   95 1    
    64   32   33 am   BACKBONE|DICT|INTERRES
    65   32   96 1    
    66   33   34 2    
    67   33   35 1    
    68   35   36 1    
    69   35   37 1    
    70   35   97 1    
    71   36   98 1    
    72   36   99 1    
    73   36  100 1    
    74   37   38 am   BACKBONE|DICT|INTERRES
    75   37  101 1    
    76   38   39 2    
    77   38   40 1    
    78   40   41 1    
    79   40   42 1    
    80   40  102 1    
    81   41  103 1    
    82   41  104 1    
    83   41  105 1    
    84   42   43 am   BACKBONE|DICT|INTERRES
    85   42  106 1    
    86   43   44 2    
    87   43   45 1    
    88   45   46 1    
    89   45   49 1    
    90   45  107 1    
    91   46   47 1    
    92   46  108 1    
    93   46  109 1    
    94   47   48 1    
    95   48  110 1    
    96   48  111 1    
    97   49   50 am   BACKBONE|DICT|INTERRES
    98   49  112 1    
    99   50   51 2    
   100   50   52 1    
   101   52   53 1    
   102   52   54 1    
   103   52  113 1    
   104   53  114 1    
   105   53  115 1    
   106   53  116 1    
   107   54   55 am   BACKBONE|DICT|INTERRES
   108   54  117 1    
   109   55   56 2    
   110   55   57 1    
   111   57   58 1    
   112   57   59 1    
   113   57  118 1    
   114   58  119 1    
   115   58  120 1    
   116   58  121 1    
   117   59   60 am   BACKBONE|DICT|INTERRES
   118   59  122 1    
   119   60   61 2    
   120   60   62 1    
   121   62   63 1    
   122   62   64 1    
   123   62  123 1    
   124   63  124 1    
   125   63  125 1    
   126   63  126 1    
   127   64   65 am   BACKBONE|DICT|INTERRES
   128   64  127 1    
   129   65   66 2    
@<TRIPOS>SUBSTRUCTURE
     1 UNK         1 GROUP             0       ****    0 ROOT    
