@<TRIPOS>MOLECULE
3R135
127   129    1
SMALL
USER_CHARGES


@<TRIPOS>ATOM
      1 CA        -81.0345   32.5889  -73.6848 C.3       0 UNK        -0.1998 
      2 C         -80.2202   31.3159  -73.5180 C.2       0 UNK         0.4909 
      3 O         -79.0037   31.3378  -73.7054 O.2       0 UNK        -0.5240 
      4 N         -80.8780   30.2012  -73.1787 N.am      1 UNK        -0.4739 
      5 CA        -80.2747   28.8798  -72.9531 C.3       1 UNK         0.0864 
      6 C6        -81.0963   28.0551  -71.9305 C.3       11 UNK        -0.0881 
      7 S7        -81.1700   28.9094  -70.3170 S.3       11 UNK        -0.2682 
      8 C8        -80.2991   27.7605  -69.2048 C.3       11 UNK         0.0289 
      9 C9        -78.8851   27.4163  -69.6599 C.ar      11 UNK        -0.0687 
     10 C10       -78.5484   26.0839  -69.9146 C.ar      11 UNK        -0.0823 
     11 C11       -77.2452   25.7241  -70.2680 C.ar      11 UNK        -0.0830 
     12 C12       -76.2692   26.7242  -70.3488 C.ar      11 UNK        -0.1021 
     13 C13       -76.6002   28.0677  -70.1580 C.ar      11 UNK        -0.0753 
     14 C14       -77.9082   28.4087  -69.7967 C.ar      11 UNK        -0.0933 
     15 C15       -75.5376   29.1417  -70.3580 C.3       11 UNK         0.0166 
     16 S16       -74.8230   29.0922  -72.0388 S.3       11 UNK        -0.2615 
     17 C17       -76.3064   29.4198  -73.0517 C.3       11 UNK        -0.0865 
     18 CA        -76.0257   30.1046  -74.4145 C.3       10 UNK         0.0862 
     19 C         -75.4794   31.5517  -74.2641 C.2       10 UNK         0.5551 
     20 N         -76.3465   32.4870  -73.9019 N.am      10 UNK        -0.7319 
     21 O         -74.2950   31.8283  -74.4440 O.2       10 UNK        -0.5018 
     22 N         -75.2467   29.2383  -75.3061 N.am      10 UNK        -0.4509 
     23 C         -75.1335   29.4078  -76.6301 C.2       10 UNK         0.4899 
     24 O         -75.6781   30.3223  -77.2506 O.2       10 UNK        -0.4839 
     25 CA        -74.3359   28.3402  -77.4015 C.3       9 UNK         0.0222 
     26 CB        -73.7462   28.8573  -78.7306 C.3       9 UNK        -0.1966 
     27 N         -73.3228   27.6695  -76.5831 N.am      9 UNK        -0.4218 
     28 C         -72.1841   28.1735  -76.0837 C.2       9 UNK         0.5020 
     29 O         -71.7869   29.3231  -76.2736 O.2       9 UNK        -0.5274 
     30 CA        -71.3411   27.2194  -75.2213 C.3       8 UNK         0.0270 
     31 CB        -71.7826   27.2980  -73.7498 C.3       8 UNK        -0.1976 
     32 N         -71.4559   25.8359  -75.6911 N.am      8 UNK        -0.4313 
     33 C         -70.6657   25.2770  -76.6182 C.2       8 UNK         0.5041 
     34 O         -69.6745   25.8289  -77.0980 O.2       8 UNK        -0.5577 
     35 CA        -71.0458   23.8639  -77.1023 C.3       7 UNK         0.0284 
     36 CB        -70.3849   22.7952  -76.2167 C.3       7 UNK        -0.1958 
     37 N         -72.4938   23.6368  -77.1408 N.am      7 UNK        -0.4454 
     38 C         -73.3383   24.2391  -77.9909 C.2       7 UNK         0.5089 
     39 O         -72.9753   24.9837  -78.9009 O.2       7 UNK        -0.5125 
     40 CA        -74.8470   23.9957  -77.7811 C.3       6 UNK         0.0408 
     41 CB        -75.3441   22.9057  -78.7440 C.3       6 UNK        -0.1791 
     42 N         -75.2534   23.6519  -76.4095 N.am      6 UNK        -0.4762 
     43 C         -74.9968   24.3783  -75.3103 C.2       6 UNK         0.5007 
     44 O         -74.3022   25.3951  -75.3219 O.2       6 UNK        -0.5032 
     45 CA        -75.6440   23.9017  -73.9999 C.3       5 UNK         0.0783 
     46 C46       -75.1853   24.7290  -72.7708 C.3       11 UNK        -0.0857 
     47 S47       -75.3053   23.8182  -71.1927 S.3       11 UNK        -0.2512 
     48 C48       -76.9627   24.2470  -70.5489 C.3       11 UNK         0.0225 
     49 N         -77.0835   24.0013  -74.2114 N.am      5 UNK        -0.4615 
     50 C         -77.9874   23.0599  -73.9209 C.2       4 UNK         0.5053 
     51 O         -77.7226   21.9982  -73.3578 O.2       4 UNK        -0.5105 
     52 CA        -79.4377   23.3482  -74.3530 C.3       4 UNK         0.0263 
     53 CB        -80.1921   24.0656  -73.2218 C.3       4 UNK        -0.1981 
     54 N         -79.5162   24.1487  -75.5810 N.am      4 UNK        -0.4224 
     55 C         -79.0248   23.7586  -76.7686 C.2       3 UNK         0.4895 
     56 O         -78.5696   22.6329  -76.9744 O.2       3 UNK        -0.5091 
     57 CA        -78.9968   24.7791  -77.9218 C.3       3 UNK         0.0250 
     58 CB        -79.9739   24.3630  -79.0338 C.3       3 UNK        -0.1996 
     59 N         -79.2706   26.1690  -77.5474 N.am      3 UNK        -0.4254 
     60 C         -78.5417   26.9364  -76.7248 C.2       2 UNK         0.5004 
     61 O         -77.5598   26.5325  -76.0988 O.2       2 UNK        -0.5226 
     62 CA        -78.9917   28.4033  -76.5661 C.3       2 UNK         0.0269 
     63 CB        -80.1935   28.8010  -77.4539 C.3       2 UNK        -0.1926 
     64 N         -79.2729   28.7716  -75.1757 N.am      2 UNK        -0.4687 
     65 C         -80.0751   28.1505  -74.2996 C.2       1 UNK         0.5165 
     66 O         -80.6687   27.0960  -74.5362 O.2       1 UNK        -0.5079 
     67 H67       -80.6759   33.3543  -72.9972 H         1 UNK         0.0900 
     68 H68       -80.9320   32.9679  -74.7011 H         1 UNK         0.0900 
     69 H69       -82.0936   32.4243  -73.4878 H         1 UNK         0.0900 
     70 H70       -81.8793   30.2414  -73.0524 H         1 UNK         0.2959 
     71 H71       -79.2792   29.0162  -72.5257 H         1 UNK         0.1079 
     72 H72       -80.6669   27.0606  -71.7998 H         1 UNK         0.0837 
     73 H73       -82.1157   27.8990  -72.2884 H         1 UNK         0.0837 
     74 H74       -80.2478   28.2090  -68.2118 H         1 UNK         0.0685 
     75 H75       -80.9043   26.8587  -69.0989 H         1 UNK         0.0685 
     76 H76       -79.3050   25.3157  -69.8258 H         1 UNK         0.1434 
     77 H77       -75.2474   26.4787  -70.5984 H         1 UNK         0.1329 
     78 H78       -78.1702   29.4433  -69.6215 H         1 UNK         0.1335 
     79 H79       -74.7395   28.9928  -69.6295 H         1 UNK         0.0680 
     80 H80       -75.9458   30.1365  -70.1724 H         1 UNK         0.0680 
     81 H81       -76.8167   28.4693  -73.2166 H         1 UNK         0.1032 
     82 H82       -77.0010   30.0284  -72.4704 H         1 UNK         0.1032 
     83 H83       -76.9894   30.2139  -74.9104 H         1 UNK         0.0461 
     84 H84       -76.0369   33.4380  -73.7819 H         1 UNK         0.3453 
     85 H85       -77.3242   32.2435  -73.7654 H         1 UNK         0.3453 
     86 H86       -74.7547   28.4747  -74.8674 H         1 UNK         0.2984 
     87 H87       -75.0597   27.5632  -77.6525 H         1 UNK         0.0554 
     88 H88       -74.5353   29.1976  -79.4020 H         1 UNK         0.0847 
     89 H89       -73.1963   28.0726  -79.2505 H         1 UNK         0.0847 
     90 H90       -73.0697   29.6980  -78.5753 H         1 UNK         0.0847 
     91 H91       -73.5873   26.7365  -76.2718 H         1 UNK         0.3141 
     92 H92       -70.2991   27.5416  -75.2808 H         1 UNK         0.0743 
     93 H93       -71.6851   28.3155  -73.3682 H         1 UNK         0.0784 
     94 H94       -72.8245   27.0037  -73.6194 H         1 UNK         0.0784 
     95 H95       -71.1711   26.6547  -73.1171 H         1 UNK         0.0784 
     96 H96       -72.2822   25.3303  -75.3928 H         1 UNK         0.3213 
     97 H97       -70.6607   23.7507  -78.1183 H         1 UNK         0.0855 
     98 H98       -70.7428   22.8424  -75.1874 H         1 UNK         0.0814 
     99 H99       -69.3022   22.9272  -76.1907 H         1 UNK         0.0814 
    100 H100      -70.5773   21.7910  -76.5949 H         1 UNK         0.0814 
    101 H101      -72.8836   23.0219  -76.4415 H         1 UNK         0.3105 
    102 H102      -75.3557   24.9282  -78.0343 H         1 UNK         0.0547 
    103 H103      -76.4272   22.7951  -78.7018 H         1 UNK         0.0837 
    104 H104      -75.0878   23.1490  -79.7762 H         1 UNK         0.0837 
    105 H105      -74.8993   21.9358  -78.5185 H         1 UNK         0.0837 
    106 H106      -75.8575   22.8463  -76.3156 H         1 UNK         0.3020 
    107 H107      -75.3433   22.8601  -73.8646 H         1 UNK         0.1245 
    108 H108      -75.7254   25.6751  -72.7305 H         1 UNK         0.0781 
    109 H109      -74.1305   24.9974  -72.8503 H         1 UNK         0.0781 
    110 H110      -77.1081   23.6924  -69.6210 H         1 UNK         0.0836 
    111 H111      -77.7126   23.8701  -71.2421 H         1 UNK         0.0836 
    112 H112      -77.3843   24.8260  -74.7214 H         1 UNK         0.3022 
    113 H113      -79.9271   22.3912  -74.5456 H         1 UNK         0.0747 
    114 H114      -81.2264   24.2710  -73.4985 H         1 UNK         0.0793 
    115 H115      -80.2125   23.4548  -72.3183 H         1 UNK         0.0793 
    116 H116      -79.7198   25.0139  -72.9624 H         1 UNK         0.0793 
    117 H117      -79.8744   25.0917  -75.4888 H         1 UNK         0.3047 
    118 H118      -77.9854   24.7543  -78.3319 H         1 UNK         0.0822 
    119 H119      -79.7727   23.3457  -79.3733 H         1 UNK         0.0807 
    120 H120      -79.8868   25.0131  -79.9047 H         1 UNK         0.0807 
    121 H121      -81.0094   24.3931  -78.6922 H         1 UNK         0.0807 
    122 H122      -80.0776   26.5922  -77.9826 H         1 UNK         0.2946 
    123 H123      -78.1402   29.0071  -76.8817 H         1 UNK         0.1144 
    124 H124      -80.4169   29.8630  -77.3494 H         1 UNK         0.0793 
    125 H125      -81.0989   28.2518  -77.1918 H         1 UNK         0.0793 
    126 H126      -79.9854   28.6287  -78.5109 H         1 UNK         0.0793 
    127 H127      -78.8781   29.6537  -74.8677 H         1 UNK         0.2896 
@<TRIPOS>BOND
     1    1    2 1    
     2    1   67 1    
     3    1   68 1    
     4    1   69 1    
     5    2    3 2    
     6    2    4 am   BACKBONE|DICT|INTERRES
     7    4    5 1    
     8    4   70 1    
     9    5    6 1    
    10    5   65 1    
    11    5   71 1    
    12    6    7 1    
    13    6   72 1    
    14    6   73 1    
    15    7    8 1    
    16    8    9 1    
    17    8   74 1    
    18    8   75 1    
    19    9   10 ar   
    20    9   14 ar   
    21   10   11 ar   
    22   10   76 1    
    23   11   12 ar   
    24   11   48 1    
    25   12   13 ar   
    26   12   77 1    
    27   13   14 ar   
    28   13   15 1    
    29   14   78 1    
    30   15   16 1    
    31   15   79 1    
    32   15   80 1    
    33   16   17 1    
    34   17   18 1    
    35   17   81 1    
    36   17   82 1    
    37   18   19 1    
    38   18   22 1    
    39   18   83 1    
    40   19   20 am   BACKBONE|DICT|INTERRES
    41   19   21 2    
    42   20   84 1    
    43   20   85 1    
    44   22   23 am   BACKBONE|DICT|INTERRES
    45   22   86 1    
    46   23   24 2    
    47   23   25 1    
    48   25   26 1    
    49   25   27 1    
    50   25   87 1    
    51   26   88 1    
    52   26   89 1    
    53   26   90 1    
    54   27   28 am   BACKBONE|DICT|INTERRES
    55   27   91 1    
    56   28   29 2    
    57   28   30 1    
    58   30   31 1    
    59   30   32 1    
    60   30   92 1    
    61   31   93 1    
    62   31   94 1    
    63   31   95 1    
    64   32   33 am   BACKBONE|DICT|INTERRES
    65   32   96 1    
    66   33   34 2    
    67   33   35 1    
    68   35   36 1    
    69   35   37 1    
    70   35   97 1    
    71   36   98 1    
    72   36   99 1    
    73   36  100 1    
    74   37   38 am   BACKBONE|DICT|INTERRES
    75   37  101 1    
    76   38   39 2    
    77   38   40 1    
    78   40   41 1    
    79   40   42 1    
    80   40  102 1    
    81   41  103 1    
    82   41  104 1    
    83   41  105 1    
    84   42   43 am   BACKBONE|DICT|INTERRES
    85   42  106 1    
    86   43   44 2    
    87   43   45 1    
    88   45   46 1    
    89   45   49 1    
    90   45  107 1    
    91   46   47 1    
    92   46  108 1    
    93   46  109 1    
    94   47   48 1    
    95   48  110 1    
    96   48  111 1    
    97   49   50 am   BACKBONE|DICT|INTERRES
    98   49  112 1    
    99   50   51 2    
   100   50   52 1    
   101   52   53 1    
   102   52   54 1    
   103   52  113 1    
   104   53  114 1    
   105   53  115 1    
   106   53  116 1    
   107   54   55 am   BACKBONE|DICT|INTERRES
   108   54  117 1    
   109   55   56 2    
   110   55   57 1    
   111   57   58 1    
   112   57   59 1    
   113   57  118 1    
   114   58  119 1    
   115   58  120 1    
   116   58  121 1    
   117   59   60 am   BACKBONE|DICT|INTERRES
   118   59  122 1    
   119   60   61 2    
   120   60   62 1    
   121   62   63 1    
   122   62   64 1    
   123   62  123 1    
   124   63  124 1    
   125   63  125 1    
   126   63  126 1    
   127   64   65 am   BACKBONE|DICT|INTERRES
   128   64  127 1    
   129   65   66 2    
@<TRIPOS>SUBSTRUCTURE
     1 UNK         1 GROUP             0       ****    0 ROOT    
