@<TRIPOS>MOLECULE
3R135
127   129    1
SMALL
USER_CHARGES


@<TRIPOS>ATOM
      1 CA        -78.9859   29.3913  -71.2417 C.3       0 UNK        -0.1998 
      2 C         -80.0978   29.4078  -72.2781 C.2       0 UNK         0.4909 
      3 O         -81.1454   30.0143  -72.0529 O.2       0 UNK        -0.5240 
      4 N         -79.8746   28.7373  -73.4151 N.am      1 UNK        -0.4739 
      5 CA        -80.8124   28.6607  -74.5460 C.3       1 UNK         0.0864 
      6 C6        -80.1061   28.2627  -75.8667 C.3       11 UNK        -0.0881 
      7 S7        -78.7124   29.3652  -76.2891 S.3       11 UNK        -0.2682 
      8 C8        -77.2891   28.2341  -76.1804 C.3       11 UNK         0.0289 
      9 C9        -76.9450   27.8725  -74.7426 C.ar      11 UNK        -0.0687 
     10 C10       -77.4216   26.6855  -74.1808 C.ar      11 UNK        -0.0823 
     11 C11       -77.0608   26.3147  -72.8811 C.ar      11 UNK        -0.0830 
     12 C12       -76.2280   27.1546  -72.1356 C.ar      11 UNK        -0.1021 
     13 C13       -75.7626   28.3556  -72.6792 C.ar      11 UNK        -0.0753 
     14 C14       -76.1230   28.7090  -73.9831 C.ar      11 UNK        -0.0933 
     15 C15       -74.8656   29.2725  -71.8648 C.3       11 UNK         0.0166 
     16 S16       -73.1303   29.0780  -72.3628 S.3       11 UNK        -0.2615 
     17 C17       -72.3163   30.3672  -71.3590 C.3       11 UNK        -0.0865 
     18 CA        -72.5317   31.8109  -71.8891 C.3       10 UNK         0.0862 
     19 C         -71.7170   32.8264  -71.0415 C.2       10 UNK         0.5551 
     20 N         -72.3037   33.3573  -69.9775 N.am      10 UNK        -0.7319 
     21 O         -70.5485   33.0980  -71.3121 O.2       10 UNK        -0.5018 
     22 N         -72.2616   31.9095  -73.3299 N.am      10 UNK        -0.4509 
     23 C         -72.5063   32.9705  -74.1051 C.2       10 UNK         0.4899 
     24 O         -72.9949   34.0233  -73.6937 O.2       10 UNK        -0.4839 
     25 CA        -72.1957   32.8314  -75.6070 C.3       9 UNK         0.0222 
     26 CB        -70.7002   33.0738  -75.8932 C.3       9 UNK        -0.1966 
     27 N         -72.6792   31.5812  -76.2173 N.am      9 UNK        -0.4218 
     28 C         -72.2463   30.3275  -76.0226 C.2       9 UNK         0.5020 
     29 O         -71.3197   30.0195  -75.2667 O.2       9 UNK        -0.5274 
     30 CA        -72.9716   29.2327  -76.8130 C.3       8 UNK         0.0270 
     31 CB        -72.5428   29.2456  -78.2941 C.3       8 UNK        -0.1976 
     32 N         -72.6592   27.9430  -76.2052 N.am      8 UNK        -0.4313 
     33 C         -73.3315   26.8045  -76.3926 C.2       8 UNK         0.5041 
     34 O         -74.3237   26.6991  -77.1199 O.2       8 UNK        -0.5577 
     35 CA        -72.8081   25.5731  -75.6436 C.3       7 UNK         0.0284 
     36 CB        -73.2851   25.5694  -74.1807 C.3       7 UNK        -0.1958 
     37 N         -73.3141   24.3824  -76.3166 N.am      7 UNK        -0.4454 
     38 C         -72.6732   23.2169  -76.4596 C.2       7 UNK         0.5089 
     39 O         -71.5404   22.9969  -76.0267 O.2       7 UNK        -0.5125 
     40 CA        -73.4584   22.1133  -77.1987 C.3       6 UNK         0.0408 
     41 CB        -72.7648   20.7346  -77.1662 C.3       6 UNK        -0.1791 
     42 N         -74.8429   22.0394  -76.7154 N.am      6 UNK        -0.4762 
     43 C         -75.2593   21.7354  -75.4776 C.2       6 UNK         0.5007 
     44 O         -74.5329   21.2460  -74.6121 O.2       6 UNK        -0.5032 
     45 CA        -76.7290   22.0563  -75.1253 C.3       5 UNK         0.0783 
     46 C46       -76.8554   23.4819  -74.5270 C.3       11 UNK        -0.0857 
     47 S47       -76.4984   23.5974  -72.7455 S.3       11 UNK        -0.2512 
     48 C48       -77.5622   25.0056  -72.2837 C.3       11 UNK         0.0225 
     49 N         -77.7099   21.8544  -76.2049 N.am      5 UNK        -0.4615 
     50 C         -77.8690   22.5864  -77.3194 C.2       4 UNK         0.5053 
     51 O         -77.0296   23.3706  -77.7613 O.2       4 UNK        -0.5105 
     52 CA        -79.2377   22.4766  -78.0142 C.3       4 UNK         0.0263 
     53 CB        -79.2995   21.2284  -78.9092 C.3       4 UNK        -0.1981 
     54 N         -80.3531   22.4633  -77.0571 N.am      4 UNK        -0.4224 
     55 C         -80.6264   23.4467  -76.1846 C.2       3 UNK         0.4895 
     56 O         -80.0232   24.5234  -76.1430 O.2       3 UNK        -0.5091 
     57 CA        -81.7323   23.1620  -75.1597 C.3       3 UNK         0.0250 
     58 CB        -81.3531   21.9803  -74.2427 C.3       3 UNK        -0.1996 
     59 N         -81.9354   24.3618  -74.3528 N.am      3 UNK        -0.4254 
     60 C         -83.0202   24.6606  -73.6309 C.2       2 UNK         0.5004 
     61 O         -84.0219   23.9458  -73.5765 O.2       2 UNK        -0.5226 
     62 CA        -82.9829   25.9626  -72.8094 C.3       2 UNK         0.0269 
     63 CB        -82.7920   25.6454  -71.3166 C.3       2 UNK        -0.1926 
     64 N         -81.9300   26.8943  -73.2275 N.am      2 UNK        -0.4687 
     65 C         -82.0140   27.7259  -74.2763 C.2       1 UNK         0.5165 
     66 O         -82.9932   27.7729  -75.0221 O.2       1 UNK        -0.5079 
     67 H67       -79.3272   29.8213  -70.3004 H         1 UNK         0.0900 
     68 H68       -78.1326   29.9716  -71.5917 H         1 UNK         0.0900 
     69 H69       -78.6557   28.3718  -71.0455 H         1 UNK         0.0900 
     70 H70       -78.9753   28.2973  -73.5634 H         1 UNK         0.2959 
     71 H71       -81.2333   29.6588  -74.6888 H         1 UNK         0.1079 
     72 H72       -79.7642   27.2281  -75.8284 H         1 UNK         0.0837 
     73 H73       -80.8131   28.3056  -76.6976 H         1 UNK         0.0837 
     74 H74       -77.4860   27.3344  -76.7663 H         1 UNK         0.0685 
     75 H75       -76.4277   28.7109  -76.6497 H         1 UNK         0.0685 
     76 H76       -78.0590   26.0412  -74.7693 H         1 UNK         0.1434 
     77 H77       -75.9388   26.8719  -71.1325 H         1 UNK         0.1329 
     78 H78       -75.7505   29.6294  -74.4114 H         1 UNK         0.1335 
     79 H79       -75.1789   30.3067  -72.0116 H         1 UNK         0.0680 
     80 H80       -74.9646   29.0634  -70.7985 H         1 UNK         0.0680 
     81 H81       -71.2503   30.1320  -71.3348 H         1 UNK         0.1032 
     82 H82       -72.6648   30.2816  -70.3280 H         1 UNK         0.1032 
     83 H83       -73.5876   32.0568  -71.7636 H         1 UNK         0.0461 
     84 H84       -73.2581   33.1342  -69.7409 H         1 UNK         0.3453 
     85 H85       -71.7856   34.0054  -69.4049 H         1 UNK         0.3453 
     86 H86       -71.8535   31.0896  -73.7697 H         1 UNK         0.2984 
     87 H87       -72.7486   33.6260  -76.1108 H         1 UNK         0.0554 
     88 H88       -70.4893   33.0383  -76.9619 H         1 UNK         0.0847 
     89 H89       -70.0625   32.3393  -75.4006 H         1 UNK         0.0847 
     90 H90       -70.3923   34.0568  -75.5344 H         1 UNK         0.0847 
     91 H91       -73.4615   31.7030  -76.8461 H         1 UNK         0.3141 
     92 H92       -74.0466   29.4068  -76.7359 H         1 UNK         0.0743 
     93 H93       -71.4737   29.0582  -78.4030 H         1 UNK         0.0784 
     94 H94       -73.0745   28.4886  -78.8708 H         1 UNK         0.0784 
     95 H95       -72.7549   30.2084  -78.7603 H         1 UNK         0.0784 
     96 H96       -71.8869   27.9853  -75.5491 H         1 UNK         0.3213 
     97 H97       -71.7163   25.5814  -75.6776 H         1 UNK         0.0855 
     98 H98       -72.9871   24.6568  -73.6645 H         1 UNK         0.0814 
     99 H99       -74.3705   25.6523  -74.1115 H         1 UNK         0.0814 
    100 H100      -72.8605   26.4072  -73.6285 H         1 UNK         0.0814 
    101 H101      -74.2085   24.5202  -76.7721 H         1 UNK         0.3105 
    102 H102      -73.5171   22.4252  -78.2425 H         1 UNK         0.0547 
    103 H103      -72.5933   20.3850  -76.1480 H         1 UNK         0.0837 
    104 H104      -73.3554   19.9805  -77.6858 H         1 UNK         0.0837 
    105 H105      -71.7922   20.7798  -77.6574 H         1 UNK         0.0837 
    106 H106      -75.5435   22.4688  -77.3186 H         1 UNK         0.3020 
    107 H107      -77.0159   21.3392  -74.3538 H         1 UNK         0.1245 
    108 H108      -76.2413   24.2035  -75.0700 H         1 UNK         0.0781 
    109 H109      -77.8841   23.8185  -74.6506 H         1 UNK         0.0781 
    110 H110      -78.5897   24.8140  -72.5972 H         1 UNK         0.0836 
    111 H111      -77.5902   25.0794  -71.1955 H         1 UNK         0.0836 
    112 H112      -78.4433   21.1964  -75.9841 H         1 UNK         0.3022 
    113 H113      -79.3569   23.3586  -78.6471 H         1 UNK         0.0747 
    114 H114      -80.2320   21.1907  -79.4727 H         1 UNK         0.0793 
    115 H115      -78.4851   21.2295  -79.6352 H         1 UNK         0.0793 
    116 H116      -79.2190   20.3071  -78.3309 H         1 UNK         0.0793 
    117 H117      -80.9126   21.6229  -77.0291 H         1 UNK         0.3047 
    118 H118      -82.6517   22.9342  -75.7032 H         1 UNK         0.0822 
    119 H119      -82.1241   21.7923  -73.4954 H         1 UNK         0.0807 
    120 H120      -80.4173   22.1676  -73.7139 H         1 UNK         0.0807 
    121 H121      -81.2313   21.0561  -74.8083 H         1 UNK         0.0807 
    122 H122      -81.1792   25.0315  -74.4128 H         1 UNK         0.2946 
    123 H123      -83.9529   26.4498  -72.9346 H         1 UNK         0.1144 
    124 H124      -82.8305   26.5508  -70.7104 H         1 UNK         0.0793 
    125 H125      -81.8375   25.1528  -71.1266 H         1 UNK         0.0793 
    126 H126      -83.5786   24.9819  -70.9540 H         1 UNK         0.0793 
    127 H127      -81.0965   26.9325  -72.6592 H         1 UNK         0.2896 
@<TRIPOS>BOND
     1    1    2 1    
     2    1   67 1    
     3    1   68 1    
     4    1   69 1    
     5    2    3 2    
     6    2    4 am   BACKBONE|DICT|INTERRES
     7    4    5 1    
     8    4   70 1    
     9    5    6 1    
    10    5   65 1    
    11    5   71 1    
    12    6    7 1    
    13    6   72 1    
    14    6   73 1    
    15    7    8 1    
    16    8    9 1    
    17    8   74 1    
    18    8   75 1    
    19    9   10 ar   
    20    9   14 ar   
    21   10   11 ar   
    22   10   76 1    
    23   11   12 ar   
    24   11   48 1    
    25   12   13 ar   
    26   12   77 1    
    27   13   14 ar   
    28   13   15 1    
    29   14   78 1    
    30   15   16 1    
    31   15   79 1    
    32   15   80 1    
    33   16   17 1    
    34   17   18 1    
    35   17   81 1    
    36   17   82 1    
    37   18   19 1    
    38   18   22 1    
    39   18   83 1    
    40   19   20 am   BACKBONE|DICT|INTERRES
    41   19   21 2    
    42   20   84 1    
    43   20   85 1    
    44   22   23 am   BACKBONE|DICT|INTERRES
    45   22   86 1    
    46   23   24 2    
    47   23   25 1    
    48   25   26 1    
    49   25   27 1    
    50   25   87 1    
    51   26   88 1    
    52   26   89 1    
    53   26   90 1    
    54   27   28 am   BACKBONE|DICT|INTERRES
    55   27   91 1    
    56   28   29 2    
    57   28   30 1    
    58   30   31 1    
    59   30   32 1    
    60   30   92 1    
    61   31   93 1    
    62   31   94 1    
    63   31   95 1    
    64   32   33 am   BACKBONE|DICT|INTERRES
    65   32   96 1    
    66   33   34 2    
    67   33   35 1    
    68   35   36 1    
    69   35   37 1    
    70   35   97 1    
    71   36   98 1    
    72   36   99 1    
    73   36  100 1    
    74   37   38 am   BACKBONE|DICT|INTERRES
    75   37  101 1    
    76   38   39 2    
    77   38   40 1    
    78   40   41 1    
    79   40   42 1    
    80   40  102 1    
    81   41  103 1    
    82   41  104 1    
    83   41  105 1    
    84   42   43 am   BACKBONE|DICT|INTERRES
    85   42  106 1    
    86   43   44 2    
    87   43   45 1    
    88   45   46 1    
    89   45   49 1    
    90   45  107 1    
    91   46   47 1    
    92   46  108 1    
    93   46  109 1    
    94   47   48 1    
    95   48  110 1    
    96   48  111 1    
    97   49   50 am   BACKBONE|DICT|INTERRES
    98   49  112 1    
    99   50   51 2    
   100   50   52 1    
   101   52   53 1    
   102   52   54 1    
   103   52  113 1    
   104   53  114 1    
   105   53  115 1    
   106   53  116 1    
   107   54   55 am   BACKBONE|DICT|INTERRES
   108   54  117 1    
   109   55   56 2    
   110   55   57 1    
   111   57   58 1    
   112   57   59 1    
   113   57  118 1    
   114   58  119 1    
   115   58  120 1    
   116   58  121 1    
   117   59   60 am   BACKBONE|DICT|INTERRES
   118   59  122 1    
   119   60   61 2    
   120   60   62 1    
   121   62   63 1    
   122   62   64 1    
   123   62  123 1    
   124   63  124 1    
   125   63  125 1    
   126   63  126 1    
   127   64   65 am   BACKBONE|DICT|INTERRES
   128   64  127 1    
   129   65   66 2    
@<TRIPOS>SUBSTRUCTURE
     1 UNK         1 GROUP             0       ****    0 ROOT    
