@<TRIPOS>MOLECULE
3R135
127   129    1
SMALL
USER_CHARGES


@<TRIPOS>ATOM
      1 CA        -78.5067   29.4311  -75.3021 C.3       0 UNK        -0.1998 
      2 C         -79.8980   28.9975  -74.8684 C.2       0 UNK         0.4909 
      3 O         -80.8427   29.0911  -75.6523 O.2       0 UNK        -0.5240 
      4 N         -80.0177   28.5182  -73.6231 N.am      1 UNK        -0.4739 
      5 CA        -81.2572   28.0510  -72.9808 C.3       1 UNK         0.0864 
      6 C6        -82.2757   29.1780  -72.6626 C.3       11 UNK        -0.0881 
      7 S7        -81.5582   30.6229  -71.7949 S.3       11 UNK        -0.2682 
      8 C8        -81.0515   29.9549  -70.1713 C.3       11 UNK         0.0289 
      9 C9        -79.6217   29.4236  -70.1899 C.ar      11 UNK        -0.0687 
     10 C10       -79.3683   28.0530  -70.0826 C.ar      11 UNK        -0.0823 
     11 C11       -78.0665   27.5533  -70.1765 C.ar      11 UNK        -0.0830 
     12 C12       -76.9986   28.4528  -70.2829 C.ar      11 UNK        -0.1021 
     13 C13       -77.2328   29.8287  -70.3589 C.ar      11 UNK        -0.0753 
     14 C14       -78.5459   30.3071  -70.3172 C.ar      11 UNK        -0.0933 
     15 C15       -76.0708   30.8028  -70.4825 C.3       11 UNK         0.0166 
     16 S16       -75.9394   31.4937  -72.1613 S.3       11 UNK        -0.2615 
     17 C17       -75.2076   30.1073  -73.0943 C.3       11 UNK        -0.0865 
     18 CA        -73.7048   30.3380  -73.4021 C.3       10 UNK         0.0862 
     19 C         -72.7934   29.8107  -72.2634 C.2       10 UNK         0.5551 
     20 N         -72.2954   30.6902  -71.4053 N.am      10 UNK        -0.7319 
     21 O         -72.5716   28.6093  -72.1288 O.2       10 UNK        -0.5018 
     22 N         -73.3398   29.7468  -74.6936 N.am      10 UNK        -0.4509 
     23 C         -72.3228   30.1631  -75.4575 C.2       10 UNK         0.4899 
     24 O         -71.5977   31.1186  -75.1738 O.2       10 UNK        -0.4839 
     25 CA        -72.1018   29.3876  -76.7688 C.3       9 UNK         0.0222 
     26 CB        -70.8580   29.8533  -77.5562 C.3       9 UNK        -0.1966 
     27 N         -72.0880   27.9367  -76.5633 N.am      9 UNK        -0.4218 
     28 C         -71.2122   27.2170  -75.8435 C.2       9 UNK         0.5020 
     29 O         -70.2370   27.7001  -75.2661 O.2       9 UNK        -0.5274 
     30 CA        -71.4520   25.6965  -75.7345 C.3       8 UNK         0.0270 
     31 CB        -71.8178   25.3202  -74.2891 C.3       8 UNK        -0.1976 
     32 N         -72.4865   25.1863  -76.6412 N.am      8 UNK        -0.4313 
     33 C         -72.3558   25.0758  -77.9707 C.2       8 UNK         0.5041 
     34 O         -71.3106   25.3124  -78.5773 O.2       8 UNK        -0.5577 
     35 CA        -73.6143   24.6811  -78.7636 C.3       7 UNK         0.0284 
     36 CB        -73.7557   23.1522  -78.8306 C.3       7 UNK        -0.1958 
     37 N         -74.8456   25.2743  -78.2274 N.am      7 UNK        -0.4454 
     38 C         -75.1029   26.5910  -78.1829 C.2       7 UNK         0.5089 
     39 O         -74.3378   27.4507  -78.6182 O.2       7 UNK        -0.5125 
     40 CA        -76.3968   27.0317  -77.4763 C.3       6 UNK         0.0408 
     41 CB        -77.6266   26.8035  -78.3677 C.3       6 UNK        -0.1791 
     42 N         -76.5760   26.3535  -76.1921 N.am      6 UNK        -0.4762 
     43 C         -75.7689   26.5134  -75.1340 C.2       6 UNK         0.5007 
     44 O         -74.8611   27.3446  -75.0953 O.2       6 UNK        -0.5032 
     45 CA        -75.9680   25.5634  -73.9374 C.3       5 UNK         0.0783 
     46 C46       -76.8849   26.1708  -72.8493 C.3       11 UNK        -0.0857 
     47 S47       -76.4962   25.4396  -71.2225 S.3       11 UNK        -0.2512 
     48 C48       -77.8526   26.0402  -70.1559 C.3       11 UNK         0.0225 
     49 N         -76.4241   24.2371  -74.3638 N.am      5 UNK        -0.4615 
     50 C         -75.6516   23.3427  -74.9919 C.2       4 UNK         0.5053 
     51 O         -74.4691   23.5394  -75.2694 O.2       4 UNK        -0.5105 
     52 CA        -76.3221   22.0238  -75.4112 C.3       4 UNK         0.0263 
     53 CB        -76.4707   21.0820  -74.2056 C.3       4 UNK        -0.1981 
     54 N         -77.6285   22.2280  -76.0439 N.am      4 UNK        -0.4224 
     55 C         -77.8054   22.8417  -77.2227 C.2       3 UNK         0.4895 
     56 O         -76.8838   23.2771  -77.9113 O.2       3 UNK        -0.5091 
     57 CA        -79.2541   23.0436  -77.7028 C.3       3 UNK         0.0250 
     58 CB        -79.7503   21.7929  -78.4459 C.3       3 UNK        -0.1996 
     59 N         -80.2169   23.4057  -76.6537 N.am      3 UNK        -0.4254 
     60 C         -80.0800   24.4177  -75.7860 C.2       2 UNK         0.5004 
     61 O         -79.0636   25.1128  -75.6927 O.2       2 UNK        -0.5226 
     62 CA        -81.2618   24.6869  -74.8467 C.3       2 UNK         0.0269 
     63 CB        -81.4340   23.5539  -73.8183 C.3       2 UNK        -0.1926 
     64 N         -80.9862   25.9365  -74.1507 N.am      2 UNK        -0.4687 
     65 C         -81.8711   26.8167  -73.6759 C.2       1 UNK         0.5165 
     66 O         -83.0926   26.6687  -73.7441 O.2       1 UNK        -0.5079 
     67 H67       -78.3733   29.2660  -76.3706 H         1 UNK         0.0900 
     68 H68       -77.7357   28.8688  -74.7777 H         1 UNK         0.0900 
     69 H69       -78.3617   30.4918  -75.0988 H         1 UNK         0.0900 
     70 H70       -79.2064   28.5188  -73.0209 H         1 UNK         0.2959 
     71 H71       -80.9566   27.6365  -72.0266 H         1 UNK         0.1079 
     72 H72       -83.0966   28.7913  -72.0557 H         1 UNK         0.0837 
     73 H73       -82.7300   29.5385  -73.5871 H         1 UNK         0.0837 
     74 H74       -81.1178   30.7539  -69.4315 H         1 UNK         0.0685 
     75 H75       -81.7567   29.1860  -69.8519 H         1 UNK         0.0685 
     76 H76       -80.1931   27.3654  -69.9537 H         1 UNK         0.1434 
     77 H77       -75.9836   28.0820  -70.3234 H         1 UNK         0.1329 
     78 H78       -78.7317   31.3699  -70.3940 H         1 UNK         0.1335 
     79 H79       -75.1285   30.3278  -70.2051 H         1 UNK         0.0680 
     80 H80       -76.2165   31.6227  -69.7777 H         1 UNK         0.0680 
     81 H81       -75.3758   29.1574  -72.5857 H         1 UNK         0.1032 
     82 H82       -75.7708   30.0418  -74.0257 H         1 UNK         0.1032 
     83 H83       -73.5447   31.4146  -73.4966 H         1 UNK         0.0461 
     84 H84       -72.4863   31.6753  -71.5029 H         1 UNK         0.3453 
     85 H85       -71.7118   30.3642  -70.6511 H         1 UNK         0.3453 
     86 H86       -73.8415   28.9000  -74.9527 H         1 UNK         0.2984 
     87 H87       -72.9740   29.5933  -77.3907 H         1 UNK         0.0554 
     88 H88       -70.7478   29.2971  -78.4871 H         1 UNK         0.0847 
     89 H89       -69.9403   29.7300  -76.9806 H         1 UNK         0.0847 
     90 H90       -70.9359   30.9093  -77.8174 H         1 UNK         0.0847 
     91 H91       -72.8582   27.4413  -76.9961 H         1 UNK         0.3141 
     92 H92       -70.5119   25.2016  -75.9866 H         1 UNK         0.0743 
     93 H93       -72.7148   25.8416  -73.9560 H         1 UNK         0.0784 
     94 H94       -71.9869   24.2486  -74.1829 H         1 UNK         0.0784 
     95 H95       -71.0158   25.5913  -73.6012 H         1 UNK         0.0784 
     96 H96       -73.3525   24.8691  -76.2138 H         1 UNK         0.3213 
     97 H97       -73.4880   25.0541  -79.7822 H         1 UNK         0.0855 
     98 H98       -73.9275   22.7182  -77.8452 H         1 UNK         0.0814 
     99 H99       -72.8538   22.6933  -79.2378 H         1 UNK         0.0814 
    100 H100      -74.5861   22.8595  -79.4733 H         1 UNK         0.0814 
    101 H101      -75.5550   24.6241  -77.8955 H         1 UNK         0.3105 
    102 H102      -76.3198   28.1027  -77.2781 H         1 UNK         0.0547 
    103 H103      -77.7415   25.7549  -78.6393 H         1 UNK         0.0837 
    104 H104      -78.5432   27.1216  -77.8706 H         1 UNK         0.0837 
    105 H105      -77.5443   27.3718  -79.2949 H         1 UNK         0.0837 
    106 H106      -77.3564   25.7037  -76.1151 H         1 UNK         0.3020 
    107 H107      -74.9727   25.4424  -73.5045 H         1 UNK         0.1245 
    108 H108      -76.7400   27.2484  -72.7723 H         1 UNK         0.0781 
    109 H109      -77.9389   26.0173  -73.0863 H         1 UNK         0.0781 
    110 H110      -78.7662   25.5257  -70.4585 H         1 UNK         0.0836 
    111 H111      -77.6515   25.7311  -69.1295 H         1 UNK         0.0836 
    112 H112      -77.4019   24.0286  -74.2263 H         1 UNK         0.3022 
    113 H113      -75.6687   21.5403  -76.1408 H         1 UNK         0.0747 
    114 H114      -76.8618   20.1103  -74.5077 H         1 UNK         0.0793 
    115 H115      -75.5056   20.9064  -73.7281 H         1 UNK         0.0793 
    116 H116      -77.1390   21.4926  -73.4476 H         1 UNK         0.0793 
    117 H117      -78.4427   21.9050  -75.5423 H         1 UNK         0.3047 
    118 H118      -79.2405   23.8709  -78.4146 H         1 UNK         0.0822 
    119 H119      -80.7224   21.9645  -78.9086 H         1 UNK         0.0807 
    120 H120      -79.8418   20.9349  -77.7788 H         1 UNK         0.0807 
    121 H121      -79.0606   21.5133  -79.2439 H         1 UNK         0.0807 
    122 H122      -81.0791   22.8797  -76.6433 H         1 UNK         0.2946 
    123 H123      -82.1671   24.7939  -75.4489 H         1 UNK         0.1144 
    124 H124      -82.2560   23.7637  -73.1336 H         1 UNK         0.0793 
    125 H125      -80.5322   23.4112  -73.2213 H         1 UNK         0.0793 
    126 H126      -81.6589   22.6047  -74.3057 H         1 UNK         0.0793 
    127 H127      -80.0061   26.1894  -74.1557 H         1 UNK         0.2896 
@<TRIPOS>BOND
     1    1    2 1    
     2    1   67 1    
     3    1   68 1    
     4    1   69 1    
     5    2    3 2    
     6    2    4 am   BACKBONE|DICT|INTERRES
     7    4    5 1    
     8    4   70 1    
     9    5    6 1    
    10    5   65 1    
    11    5   71 1    
    12    6    7 1    
    13    6   72 1    
    14    6   73 1    
    15    7    8 1    
    16    8    9 1    
    17    8   74 1    
    18    8   75 1    
    19    9   10 ar   
    20    9   14 ar   
    21   10   11 ar   
    22   10   76 1    
    23   11   12 ar   
    24   11   48 1    
    25   12   13 ar   
    26   12   77 1    
    27   13   14 ar   
    28   13   15 1    
    29   14   78 1    
    30   15   16 1    
    31   15   79 1    
    32   15   80 1    
    33   16   17 1    
    34   17   18 1    
    35   17   81 1    
    36   17   82 1    
    37   18   19 1    
    38   18   22 1    
    39   18   83 1    
    40   19   20 am   BACKBONE|DICT|INTERRES
    41   19   21 2    
    42   20   84 1    
    43   20   85 1    
    44   22   23 am   BACKBONE|DICT|INTERRES
    45   22   86 1    
    46   23   24 2    
    47   23   25 1    
    48   25   26 1    
    49   25   27 1    
    50   25   87 1    
    51   26   88 1    
    52   26   89 1    
    53   26   90 1    
    54   27   28 am   BACKBONE|DICT|INTERRES
    55   27   91 1    
    56   28   29 2    
    57   28   30 1    
    58   30   31 1    
    59   30   32 1    
    60   30   92 1    
    61   31   93 1    
    62   31   94 1    
    63   31   95 1    
    64   32   33 am   BACKBONE|DICT|INTERRES
    65   32   96 1    
    66   33   34 2    
    67   33   35 1    
    68   35   36 1    
    69   35   37 1    
    70   35   97 1    
    71   36   98 1    
    72   36   99 1    
    73   36  100 1    
    74   37   38 am   BACKBONE|DICT|INTERRES
    75   37  101 1    
    76   38   39 2    
    77   38   40 1    
    78   40   41 1    
    79   40   42 1    
    80   40  102 1    
    81   41  103 1    
    82   41  104 1    
    83   41  105 1    
    84   42   43 am   BACKBONE|DICT|INTERRES
    85   42  106 1    
    86   43   44 2    
    87   43   45 1    
    88   45   46 1    
    89   45   49 1    
    90   45  107 1    
    91   46   47 1    
    92   46  108 1    
    93   46  109 1    
    94   47   48 1    
    95   48  110 1    
    96   48  111 1    
    97   49   50 am   BACKBONE|DICT|INTERRES
    98   49  112 1    
    99   50   51 2    
   100   50   52 1    
   101   52   53 1    
   102   52   54 1    
   103   52  113 1    
   104   53  114 1    
   105   53  115 1    
   106   53  116 1    
   107   54   55 am   BACKBONE|DICT|INTERRES
   108   54  117 1    
   109   55   56 2    
   110   55   57 1    
   111   57   58 1    
   112   57   59 1    
   113   57  118 1    
   114   58  119 1    
   115   58  120 1    
   116   58  121 1    
   117   59   60 am   BACKBONE|DICT|INTERRES
   118   59  122 1    
   119   60   61 2    
   120   60   62 1    
   121   62   63 1    
   122   62   64 1    
   123   62  123 1    
   124   63  124 1    
   125   63  125 1    
   126   63  126 1    
   127   64   65 am   BACKBONE|DICT|INTERRES
   128   64  127 1    
   129   65   66 2    
@<TRIPOS>SUBSTRUCTURE
     1 UNK         1 GROUP             0       ****    0 ROOT    
