@<TRIPOS>MOLECULE
3R135
127   129    1
SMALL
USER_CHARGES


@<TRIPOS>ATOM
      1 CA        -81.2565   28.1045  -78.2885 C.3       0 UNK        -0.1998 
      2 C         -82.4611   28.9734  -77.9332 C.2       0 UNK         0.4909 
      3 O         -83.1916   29.3866  -78.8320 O.2       0 UNK        -0.5240 
      4 N         -82.7050   29.2965  -76.6549 N.am      1 UNK        -0.4739 
      5 CA        -81.9945   28.8084  -75.4688 C.3       1 UNK         0.0864 
      6 C6        -82.2085   29.7753  -74.2728 C.3       11 UNK        -0.0881 
      7 S7        -81.3399   29.3079  -72.7349 S.3       11 UNK        -0.2682 
      8 C8        -79.6294   29.8282  -73.0945 C.3       11 UNK         0.0289 
      9 C9        -78.6205   29.2548  -72.1029 C.ar      11 UNK        -0.0687 
     10 C10       -78.6612   27.9064  -71.7262 C.ar      11 UNK        -0.0823 
     11 C11       -77.7387   27.3892  -70.8120 C.ar      11 UNK        -0.0830 
     12 C12       -76.7502   28.2266  -70.2872 C.ar      11 UNK        -0.1021 
     13 C13       -76.6890   29.5717  -70.6633 C.ar      11 UNK        -0.0753 
     14 C14       -77.6258   30.0789  -71.5688 C.ar      11 UNK        -0.0933 
     15 C15       -75.6301   30.4906  -70.0739 C.3       11 UNK         0.0166 
     16 S16       -74.2758   30.7969  -71.2469 S.3       11 UNK        -0.2615 
     17 C17       -73.3635   29.2194  -71.1548 C.3       11 UNK        -0.0865 
     18 CA        -72.1309   29.2116  -72.0979 C.3       10 UNK         0.0862 
     19 C         -71.1742   28.0130  -71.8277 C.2       10 UNK         0.5551 
     20 N         -70.5230   27.4432  -72.8354 N.am      10 UNK        -0.7319 
     21 O         -70.9997   27.5998  -70.6839 O.2       10 UNK        -0.5018 
     22 N         -72.5456   29.2855  -73.5061 N.am      10 UNK        -0.4509 
     23 C         -72.1147   30.1758  -74.4045 C.2       10 UNK         0.4899 
     24 O         -71.3503   31.1066  -74.1428 O.2       10 UNK        -0.4839 
     25 CA        -72.6106   29.9616  -75.8490 C.3       9 UNK         0.0222 
     26 CB        -71.9250   30.8979  -76.8663 C.3       9 UNK        -0.1966 
     27 N         -72.5086   28.5637  -76.2912 N.am      9 UNK        -0.4218 
     28 C         -71.4067   27.7945  -76.3099 C.2       9 UNK         0.5020 
     29 O         -70.3031   28.1811  -75.9221 O.2       9 UNK        -0.5274 
     30 CA        -71.5352   26.3391  -76.8026 C.3       8 UNK         0.0270 
     31 CB        -71.0597   25.3586  -75.7160 C.3       8 UNK        -0.1976 
     32 N         -72.8917   25.9677  -77.2094 N.am      8 UNK        -0.4313 
     33 C         -73.4596   26.2695  -78.3841 C.2       8 UNK         0.5041 
     34 O         -72.8759   26.8524  -79.2982 O.2       8 UNK        -0.5577 
     35 CA        -74.9462   25.9017  -78.5452 C.3       7 UNK         0.0284 
     36 CB        -75.1009   24.4388  -78.9882 C.3       7 UNK        -0.1958 
     37 N         -75.7315   26.1370  -77.3277 N.am      7 UNK        -0.4454 
     38 C         -75.8983   27.3368  -76.7503 C.2       7 UNK         0.5089 
     39 O         -75.4193   28.3824  -77.1874 O.2       7 UNK        -0.5125 
     40 CA        -76.6905   27.3689  -75.4375 C.3       6 UNK         0.0408 
     41 CB        -78.1999   27.3295  -75.7063 C.3       6 UNK        -0.1791 
     42 N         -76.3163   26.2592  -74.5651 N.am      6 UNK        -0.4762 
     43 C         -75.1781   26.2063  -73.8597 C.2       6 UNK         0.5007 
     44 O         -74.3358   27.1048  -73.8504 O.2       6 UNK        -0.5032 
     45 CA        -74.9114   24.9075  -73.0714 C.3       5 UNK         0.0783 
     46 C46       -75.5287   24.9530  -71.6513 C.3       11 UNK        -0.0857 
     47 S47       -77.3471   24.7530  -71.6346 S.3       11 UNK        -0.2512 
     48 C48       -77.8487   25.9417  -70.3512 C.3       11 UNK         0.0225 
     49 N         -75.3166   23.7037  -73.8067 N.am      5 UNK        -0.4615 
     50 C         -74.7942   23.3082  -74.9733 C.2       4 UNK         0.5053 
     51 O         -73.8896   23.9053  -75.5520 O.2       4 UNK        -0.5105 
     52 CA        -75.4001   22.0575  -75.6285 C.3       4 UNK         0.0263 
     53 CB        -74.7087   20.7915  -75.0984 C.3       4 UNK        -0.1981 
     54 N         -76.8530   21.9175  -75.4812 N.am      4 UNK        -0.4224 
     55 C         -77.7817   22.8240  -75.8225 C.2       3 UNK         0.4895 
     56 O         -77.5111   23.9652  -76.2026 O.2       3 UNK        -0.5091 
     57 CA        -79.2549   22.3723  -75.7532 C.3       3 UNK         0.0250 
     58 CB        -79.4533   20.9401  -75.2106 C.3       3 UNK        -0.1996 
     59 N         -80.0501   23.2911  -74.9391 N.am      3 UNK        -0.4254 
     60 C         -80.7592   24.3272  -75.4048 C.2       2 UNK         0.5004 
     61 O         -80.8071   24.6453  -76.5950 O.2       2 UNK        -0.5226 
     62 CA        -81.5765   25.1364  -74.3794 C.3       2 UNK         0.0269 
     63 CB        -81.1571   24.8985  -72.9134 C.3       2 UNK        -0.1926 
     64 N         -81.4459   26.5600  -74.6806 N.am      2 UNK        -0.4687 
     65 C         -82.4128   27.3535  -75.1548 C.2       1 UNK         0.5165 
     66 O         -83.5776   26.9921  -75.3411 O.2       1 UNK        -0.5079 
     67 H67       -81.3211   27.1232  -77.8203 H         1 UNK         0.0900 
     68 H68       -80.3273   28.5841  -77.9844 H         1 UNK         0.0900 
     69 H69       -81.2060   27.9483  -79.3659 H         1 UNK         0.0900 
     70 H70       -83.5250   29.8527  -76.4587 H         1 UNK         0.2959 
     71 H71       -80.9294   28.8114  -75.7002 H         1 UNK         0.1079 
     72 H72       -81.8941   30.7835  -74.5485 H         1 UNK         0.0837 
     73 H73       -83.2723   29.8503  -74.0394 H         1 UNK         0.0837 
     74 H74       -79.5963   30.9189  -73.0896 H         1 UNK         0.0685 
     75 H75       -79.3440   29.5175  -74.0980 H         1 UNK         0.0685 
     76 H76       -79.4268   27.2595  -72.1282 H         1 UNK         0.1434 
     77 H77       -76.0366   27.8367  -69.5743 H         1 UNK         0.1329 
     78 H78       -77.5763   31.1205  -71.8557 H         1 UNK         0.1335 
     79 H79       -76.0878   31.4453  -69.8103 H         1 UNK         0.0680 
     80 H80       -75.2282   30.0804  -69.1460 H         1 UNK         0.0680 
     81 H81       -73.0614   29.0739  -70.1161 H         1 UNK         0.1032 
     82 H82       -74.0359   28.3959  -71.4006 H         1 UNK         0.1032 
     83 H83       -71.5349   30.0912  -71.8493 H         1 UNK         0.0461 
     84 H84       -69.8978   26.6771  -72.6439 H         1 UNK         0.3453 
     85 H85       -70.6040   27.8086  -73.7749 H         1 UNK         0.3453 
     86 H86       -73.1681   28.5369  -73.8049 H         1 UNK         0.2984 
     87 H87       -73.6745   30.2025  -75.8435 H         1 UNK         0.0554 
     88 H88       -72.3232   30.7510  -77.8702 H         1 UNK         0.0847 
     89 H89       -70.8476   30.7332  -76.9051 H         1 UNK         0.0847 
     90 H90       -72.0853   31.9446  -76.6051 H         1 UNK         0.0847 
     91 H91       -73.3782   28.1572  -76.6166 H         1 UNK         0.3141 
     92 H92       -70.8738   26.2340  -77.6650 H         1 UNK         0.0743 
     93 H93       -70.0244   25.5523  -75.4329 H         1 UNK         0.0784 
     94 H94       -71.6666   25.4368  -74.8127 H         1 UNK         0.0784 
     95 H95       -71.1097   24.3265  -76.0636 H         1 UNK         0.0784 
     96 H96       -73.4201   25.4056  -76.5437 H         1 UNK         0.3213 
     97 H97       -75.3616   26.5401  -79.3280 H         1 UNK         0.0855 
     98 H98       -74.6518   23.7523  -78.2715 H         1 UNK         0.0814 
     99 H99       -74.6103   24.2709  -79.9478 H         1 UNK         0.0814 
    100 H100      -76.1497   24.1651  -79.1064 H         1 UNK         0.0814 
    101 H101      -76.1899   25.3345  -76.9053 H         1 UNK         0.3105 
    102 H102      -76.4636   28.3047  -74.9212 H         1 UNK         0.0547 
    103 H103      -78.4926   26.4516  -76.2838 H         1 UNK         0.0837 
    104 H104      -78.7528   27.3166  -74.7697 H         1 UNK         0.0837 
    105 H105      -78.5122   28.2099  -76.2683 H         1 UNK         0.0837 
    106 H106      -76.9148   25.4434  -74.5766 H         1 UNK         0.3020 
    107 H107      -73.8266   24.8513  -72.9522 H         1 UNK         0.1245 
    108 H108      -75.2457   25.8765  -71.1433 H         1 UNK         0.0781 
    109 H109      -75.1058   24.1487  -71.0476 H         1 UNK         0.0781 
    110 H110      -77.2573   25.7713  -69.4502 H         1 UNK         0.0836 
    111 H111      -78.8839   25.7368  -70.0742 H         1 UNK         0.0836 
    112 H112      -76.0739   23.1708  -73.4045 H         1 UNK         0.3022 
    113 H113      -75.1979   22.1241  -76.6983 H         1 UNK         0.0747 
    114 H114      -75.0337   19.9035  -75.6409 H         1 UNK         0.0793 
    115 H115      -73.6259   20.8599  -75.2150 H         1 UNK         0.0793 
    116 H116      -74.9128   20.6324  -74.0388 H         1 UNK         0.0793 
    117 H117      -77.1798   21.0135  -75.1720 H         1 UNK         0.3047 
    118 H118      -79.6251   22.3845  -76.7806 H         1 UNK         0.0822 
    119 H119      -78.9423   20.2019  -75.8305 H         1 UNK         0.0807 
    120 H120      -80.5092   20.6681  -75.2135 H         1 UNK         0.0807 
    121 H121      -79.0926   20.8326  -74.1865 H         1 UNK         0.0807 
    122 H122      -80.0407   23.1289  -73.9426 H         1 UNK         0.2946 
    123 H123      -82.6161   24.8195  -74.4904 H         1 UNK         0.1144 
    124 H124      -81.3710   23.8768  -72.5974 H         1 UNK         0.0793 
    125 H125      -81.7050   25.5563  -72.2380 H         1 UNK         0.0793 
    126 H126      -80.0940   25.0815  -72.7593 H         1 UNK         0.0793 
    127 H127      -80.5185   26.9401  -74.5767 H         1 UNK         0.2896 
@<TRIPOS>BOND
     1    1    2 1    
     2    1   67 1    
     3    1   68 1    
     4    1   69 1    
     5    2    3 2    
     6    2    4 am   BACKBONE|DICT|INTERRES
     7    4    5 1    
     8    4   70 1    
     9    5    6 1    
    10    5   65 1    
    11    5   71 1    
    12    6    7 1    
    13    6   72 1    
    14    6   73 1    
    15    7    8 1    
    16    8    9 1    
    17    8   74 1    
    18    8   75 1    
    19    9   10 ar   
    20    9   14 ar   
    21   10   11 ar   
    22   10   76 1    
    23   11   12 ar   
    24   11   48 1    
    25   12   13 ar   
    26   12   77 1    
    27   13   14 ar   
    28   13   15 1    
    29   14   78 1    
    30   15   16 1    
    31   15   79 1    
    32   15   80 1    
    33   16   17 1    
    34   17   18 1    
    35   17   81 1    
    36   17   82 1    
    37   18   19 1    
    38   18   22 1    
    39   18   83 1    
    40   19   20 am   BACKBONE|DICT|INTERRES
    41   19   21 2    
    42   20   84 1    
    43   20   85 1    
    44   22   23 am   BACKBONE|DICT|INTERRES
    45   22   86 1    
    46   23   24 2    
    47   23   25 1    
    48   25   26 1    
    49   25   27 1    
    50   25   87 1    
    51   26   88 1    
    52   26   89 1    
    53   26   90 1    
    54   27   28 am   BACKBONE|DICT|INTERRES
    55   27   91 1    
    56   28   29 2    
    57   28   30 1    
    58   30   31 1    
    59   30   32 1    
    60   30   92 1    
    61   31   93 1    
    62   31   94 1    
    63   31   95 1    
    64   32   33 am   BACKBONE|DICT|INTERRES
    65   32   96 1    
    66   33   34 2    
    67   33   35 1    
    68   35   36 1    
    69   35   37 1    
    70   35   97 1    
    71   36   98 1    
    72   36   99 1    
    73   36  100 1    
    74   37   38 am   BACKBONE|DICT|INTERRES
    75   37  101 1    
    76   38   39 2    
    77   38   40 1    
    78   40   41 1    
    79   40   42 1    
    80   40  102 1    
    81   41  103 1    
    82   41  104 1    
    83   41  105 1    
    84   42   43 am   BACKBONE|DICT|INTERRES
    85   42  106 1    
    86   43   44 2    
    87   43   45 1    
    88   45   46 1    
    89   45   49 1    
    90   45  107 1    
    91   46   47 1    
    92   46  108 1    
    93   46  109 1    
    94   47   48 1    
    95   48  110 1    
    96   48  111 1    
    97   49   50 am   BACKBONE|DICT|INTERRES
    98   49  112 1    
    99   50   51 2    
   100   50   52 1    
   101   52   53 1    
   102   52   54 1    
   103   52  113 1    
   104   53  114 1    
   105   53  115 1    
   106   53  116 1    
   107   54   55 am   BACKBONE|DICT|INTERRES
   108   54  117 1    
   109   55   56 2    
   110   55   57 1    
   111   57   58 1    
   112   57   59 1    
   113   57  118 1    
   114   58  119 1    
   115   58  120 1    
   116   58  121 1    
   117   59   60 am   BACKBONE|DICT|INTERRES
   118   59  122 1    
   119   60   61 2    
   120   60   62 1    
   121   62   63 1    
   122   62   64 1    
   123   62  123 1    
   124   63  124 1    
   125   63  125 1    
   126   63  126 1    
   127   64   65 am   BACKBONE|DICT|INTERRES
   128   64  127 1    
   129   65   66 2    
@<TRIPOS>SUBSTRUCTURE
     1 UNK         1 GROUP             0       ****    0 ROOT    
