@<TRIPOS>MOLECULE
3R135
127   129    1
SMALL
USER_CHARGES


@<TRIPOS>ATOM
      1 CA        -84.7474   28.5688  -76.3435 C.3       0 UNK        -0.1998 
      2 C         -84.3563   27.9817  -74.9900 C.2       0 UNK         0.4909 
      3 O         -85.2202   27.4667  -74.2831 O.2       0 UNK        -0.5240 
      4 N         -83.0802   28.0296  -74.5799 N.am      1 UNK        -0.4739 
      5 CA        -81.9328   28.5893  -75.3120 C.3       1 UNK         0.0864 
      6 C6        -80.7629   28.9404  -74.3621 C.3       11 UNK        -0.0881 
      7 S7        -81.1873   30.1574  -73.0725 S.3       11 UNK        -0.2682 
      8 C8        -80.8138   29.2433  -71.5390 C.3       11 UNK         0.0289 
      9 C9        -79.3497   28.8261  -71.4320 C.ar      11 UNK        -0.0687 
     10 C10       -79.0020   27.4723  -71.4581 C.ar      11 UNK        -0.0823 
     11 C11       -77.6688   27.0665  -71.3304 C.ar      11 UNK        -0.0830 
     12 C12       -76.6778   28.0426  -71.1719 C.ar      11 UNK        -0.1021 
     13 C13       -77.0067   29.4016  -71.1467 C.ar      11 UNK        -0.0753 
     14 C14       -78.3455   29.7863  -71.2781 C.ar      11 UNK        -0.0933 
     15 C15       -75.9246   30.4549  -70.9427 C.3       11 UNK         0.0166 
     16 S16       -74.8153   30.6013  -72.3817 S.3       11 UNK        -0.2615 
     17 C17       -73.3666   29.6318  -71.8297 C.3       11 UNK        -0.0865 
     18 CA        -72.1050   29.8688  -72.7047 C.3       10 UNK         0.0862 
     19 C         -70.8598   29.1273  -72.1325 C.2       10 UNK         0.5551 
     20 N         -70.1093   28.3615  -72.9174 N.am      10 UNK        -0.7319 
     21 O         -70.5586   29.2601  -70.9488 O.2       10 UNK        -0.5018 
     22 N         -72.3591   29.5735  -74.1231 N.am      10 UNK        -0.4509 
     23 C         -71.7985   30.2231  -75.1493 C.2       10 UNK         0.4899 
     24 O         -71.0389   31.1845  -75.0150 O.2       10 UNK        -0.4839 
     25 CA        -72.1475   29.7131  -76.5610 C.3       9 UNK         0.0222 
     26 CB        -71.2309   30.3002  -77.6557 C.3       9 UNK        -0.1966 
     27 N         -72.2011   28.2494  -76.6687 N.am      9 UNK        -0.4218 
     28 C         -71.2126   27.3741  -76.4227 C.2       9 UNK         0.5020 
     29 O         -70.1105   27.7091  -75.9850 O.2       9 UNK        -0.5274 
     30 CA        -71.4757   25.8739  -76.6883 C.3       8 UNK         0.0270 
     31 CB        -71.0578   25.0213  -75.4773 C.3       8 UNK        -0.1976 
     32 N         -72.8664   25.5612  -77.0299 N.am      8 UNK        -0.4313 
     33 C         -73.4419   25.7401  -78.2271 C.2       8 UNK         0.5041 
     34 O         -72.8317   26.0995  -79.2339 O.2       8 UNK        -0.5577 
     35 CA        -74.9725   25.5632  -78.2880 C.3       7 UNK         0.0284 
     36 CB        -75.3537   24.1022  -78.5738 C.3       7 UNK        -0.1958 
     37 N         -75.6351   26.0208  -77.0608 N.am      7 UNK        -0.4454 
     38 C         -75.6090   27.2863  -76.6155 C.2       7 UNK         0.5089 
     39 O         -75.1223   28.2214  -77.2497 O.2       7 UNK        -0.5125 
     40 CA        -76.1347   27.5406  -75.1976 C.3       6 UNK         0.0408 
     41 CB        -77.6454   27.7877  -75.2039 C.3       6 UNK        -0.1791 
     42 N         -75.8122   26.4300  -74.3020 N.am      6 UNK        -0.4762 
     43 C         -74.6166   26.2661  -73.7202 C.2       6 UNK         0.5007 
     44 O         -73.6835   27.0522  -73.8749 O.2       6 UNK        -0.5032 
     45 CA        -74.3814   24.9914  -72.8808 C.3       5 UNK         0.0783 
     46 C46       -74.4002   25.2396  -71.3456 C.3       11 UNK        -0.0857 
     47 S47       -75.9429   25.0083  -70.3790 S.3       11 UNK        -0.2512 
     48 C48       -77.3495   25.5724  -71.3962 C.3       11 UNK         0.0225 
     49 N         -75.1681   23.8330  -73.3207 N.am      5 UNK        -0.4615 
     50 C         -74.9847   23.2312  -74.5040 C.2       4 UNK         0.5053 
     51 O         -74.1237   23.5775  -75.3118 O.2       4 UNK        -0.5105 
     52 CA        -75.9421   22.0871  -74.8756 C.3       4 UNK         0.0263 
     53 CB        -75.5056   20.7802  -74.1948 C.3       4 UNK        -0.1981 
     54 N         -77.3593   22.3434  -74.5881 N.am      4 UNK        -0.4224 
     55 C         -78.0645   23.4119  -74.9874 C.2       3 UNK         0.4895 
     56 O         -77.5692   24.3931  -75.5463 O.2       3 UNK        -0.5091 
     57 CA        -79.5699   23.3826  -74.6668 C.3       3 UNK         0.0250 
     58 CB        -79.8253   23.6727  -73.1797 C.3       3 UNK        -0.1996 
     59 N         -80.3381   24.3454  -75.4582 N.am      3 UNK        -0.4254 
     60 C         -80.6163   24.2357  -76.7645 C.2       2 UNK         0.5004 
     61 O         -80.2603   23.2817  -77.4581 O.2       2 UNK        -0.5226 
     62 CA        -81.4608   25.3566  -77.4027 C.3       2 UNK         0.0269 
     63 CB        -82.7362   24.7818  -78.0455 C.3       2 UNK        -0.1926 
     64 N         -81.8549   26.3884  -76.4336 N.am      2 UNK        -0.4687 
     65 C         -81.4201   27.6566  -76.4349 C.2       1 UNK         0.5165 
     66 O         -80.6367   28.1045  -77.2720 O.2       1 UNK        -0.5079 
     67 H67       -85.8200   28.4653  -76.5065 H         1 UNK         0.0900 
     68 H68       -84.2410   28.0542  -77.1590 H         1 UNK         0.0900 
     69 H69       -84.5102   29.6310  -76.3918 H         1 UNK         0.0900 
     70 H70       -82.8641   27.6641  -73.6639 H         1 UNK         0.2959 
     71 H71       -82.2454   29.5169  -75.7951 H         1 UNK         0.1079 
     72 H72       -79.9412   29.3800  -74.9287 H         1 UNK         0.0837 
     73 H73       -80.3711   28.0333  -73.9010 H         1 UNK         0.0837 
     74 H74       -81.4721   28.3755  -71.4760 H         1 UNK         0.0685 
     75 H75       -81.0642   29.8757  -70.6861 H         1 UNK         0.0685 
     76 H76       -79.7789   26.7294  -71.5746 H         1 UNK         0.1434 
     77 H77       -75.6452   27.7538  -71.0675 H         1 UNK         0.1329 
     78 H78       -78.6122   30.8341  -71.2536 H         1 UNK         0.1335 
     79 H79       -76.3781   31.4314  -70.7657 H         1 UNK         0.0680 
     80 H80       -75.3563   30.2230  -70.0412 H         1 UNK         0.0680 
     81 H81       -73.1527   29.9036  -70.7944 H         1 UNK         0.1032 
     82 H82       -73.6282   28.5754  -71.8149 H         1 UNK         0.1032 
     83 H83       -71.8664   30.9304  -72.6185 H         1 UNK         0.0461 
     84 H84       -70.3166   28.2648  -73.9034 H         1 UNK         0.3453 
     85 H85       -69.3052   27.8973  -72.5270 H         1 UNK         0.3453 
     86 H86       -72.9286   28.7490  -74.2944 H         1 UNK         0.2984 
     87 H87       -73.1596   30.0668  -76.7611 H         1 UNK         0.0554 
     88 H88       -71.5221   29.9507  -78.6462 H         1 UNK         0.0847 
     89 H89       -70.1867   30.0283  -77.4972 H         1 UNK         0.0847 
     90 H90       -71.2846   31.3895  -77.6702 H         1 UNK         0.0847 
     91 H91       -73.0923   27.8863  -76.9874 H         1 UNK         0.3141 
     92 H92       -70.8458   25.5873  -77.5327 H         1 UNK         0.0743 
     93 H93       -69.9896   25.1185  -75.2790 H         1 UNK         0.0784 
     94 H94       -71.5829   25.3270  -74.5730 H         1 UNK         0.0784 
     95 H95       -71.2595   23.9629  -75.6440 H         1 UNK         0.0784 
     96 H96       -73.4351   25.1648  -76.2870 H         1 UNK         0.3213 
     97 H97       -75.3434   26.1783  -79.1108 H         1 UNK         0.0855 
     98 H98       -74.9350   23.7721  -79.5254 H         1 UNK         0.0814 
     99 H99       -76.4352   23.9778  -78.6336 H         1 UNK         0.0814 
    100 H100      -74.9812   23.4262  -77.8049 H         1 UNK         0.0814 
    101 H101      -76.1121   25.3224  -76.4971 H         1 UNK         0.3105 
    102 H102      -75.6561   28.4478  -74.8207 H         1 UNK         0.0547 
    103 H103      -77.9899   28.0531  -74.2053 H         1 UNK         0.0837 
    104 H104      -77.8954   28.6154  -75.8686 H         1 UNK         0.0837 
    105 H105      -78.2091   26.9185  -75.5419 H         1 UNK         0.0837 
    106 H106      -76.4977   25.6881  -74.2437 H         1 UNK         0.3020 
    107 H107      -73.3438   24.7325  -73.1052 H         1 UNK         0.1245 
    108 H108      -73.9839   26.2190  -71.1062 H         1 UNK         0.0781 
    109 H109      -73.6909   24.5420  -70.8971 H         1 UNK         0.0781 
    110 H110      -77.2410   25.2619  -72.4307 H         1 UNK         0.0836 
    111 H111      -78.2129   25.0233  -71.0181 H         1 UNK         0.0836 
    112 H112      -75.8722   23.4849  -72.6870 H         1 UNK         0.3022 
    113 H113      -75.8627   21.9447  -75.9551 H         1 UNK         0.0747 
    114 H114      -76.0888   19.9315  -74.5527 H         1 UNK         0.0793 
    115 H115      -74.4578   20.5605  -74.4060 H         1 UNK         0.0793 
    116 H116      -75.6158   20.8307  -73.1108 H         1 UNK         0.0793 
    117 H117      -77.8530   21.5994  -74.1159 H         1 UNK         0.3047 
    118 H118      -79.9395   22.3807  -74.8963 H         1 UNK         0.0822 
    119 H119      -79.2182   23.0390  -72.5318 H         1 UNK         0.0807 
    120 H120      -80.8679   23.4890  -72.9189 H         1 UNK         0.0807 
    121 H121      -79.6041   24.7103  -72.9355 H         1 UNK         0.0807 
    122 H122      -80.6365   25.1826  -74.9839 H         1 UNK         0.2946 
    123 H123      -80.8466   25.7905  -78.1952 H         1 UNK         0.1144 
    124 H124      -82.4936   24.0382  -78.8060 H         1 UNK         0.0793 
    125 H125      -83.3184   25.5627  -78.5351 H         1 UNK         0.0793 
    126 H126      -83.3774   24.2977  -77.3080 H         1 UNK         0.0793 
    127 H127      -82.5119   26.1105  -75.7171 H         1 UNK         0.2896 
@<TRIPOS>BOND
     1    1    2 1    
     2    1   67 1    
     3    1   68 1    
     4    1   69 1    
     5    2    3 2    
     6    2    4 am   BACKBONE|DICT|INTERRES
     7    4    5 1    
     8    4   70 1    
     9    5    6 1    
    10    5   65 1    
    11    5   71 1    
    12    6    7 1    
    13    6   72 1    
    14    6   73 1    
    15    7    8 1    
    16    8    9 1    
    17    8   74 1    
    18    8   75 1    
    19    9   10 ar   
    20    9   14 ar   
    21   10   11 ar   
    22   10   76 1    
    23   11   12 ar   
    24   11   48 1    
    25   12   13 ar   
    26   12   77 1    
    27   13   14 ar   
    28   13   15 1    
    29   14   78 1    
    30   15   16 1    
    31   15   79 1    
    32   15   80 1    
    33   16   17 1    
    34   17   18 1    
    35   17   81 1    
    36   17   82 1    
    37   18   19 1    
    38   18   22 1    
    39   18   83 1    
    40   19   20 am   BACKBONE|DICT|INTERRES
    41   19   21 2    
    42   20   84 1    
    43   20   85 1    
    44   22   23 am   BACKBONE|DICT|INTERRES
    45   22   86 1    
    46   23   24 2    
    47   23   25 1    
    48   25   26 1    
    49   25   27 1    
    50   25   87 1    
    51   26   88 1    
    52   26   89 1    
    53   26   90 1    
    54   27   28 am   BACKBONE|DICT|INTERRES
    55   27   91 1    
    56   28   29 2    
    57   28   30 1    
    58   30   31 1    
    59   30   32 1    
    60   30   92 1    
    61   31   93 1    
    62   31   94 1    
    63   31   95 1    
    64   32   33 am   BACKBONE|DICT|INTERRES
    65   32   96 1    
    66   33   34 2    
    67   33   35 1    
    68   35   36 1    
    69   35   37 1    
    70   35   97 1    
    71   36   98 1    
    72   36   99 1    
    73   36  100 1    
    74   37   38 am   BACKBONE|DICT|INTERRES
    75   37  101 1    
    76   38   39 2    
    77   38   40 1    
    78   40   41 1    
    79   40   42 1    
    80   40  102 1    
    81   41  103 1    
    82   41  104 1    
    83   41  105 1    
    84   42   43 am   BACKBONE|DICT|INTERRES
    85   42  106 1    
    86   43   44 2    
    87   43   45 1    
    88   45   46 1    
    89   45   49 1    
    90   45  107 1    
    91   46   47 1    
    92   46  108 1    
    93   46  109 1    
    94   47   48 1    
    95   48  110 1    
    96   48  111 1    
    97   49   50 am   BACKBONE|DICT|INTERRES
    98   49  112 1    
    99   50   51 2    
   100   50   52 1    
   101   52   53 1    
   102   52   54 1    
   103   52  113 1    
   104   53  114 1    
   105   53  115 1    
   106   53  116 1    
   107   54   55 am   BACKBONE|DICT|INTERRES
   108   54  117 1    
   109   55   56 2    
   110   55   57 1    
   111   57   58 1    
   112   57   59 1    
   113   57  118 1    
   114   58  119 1    
   115   58  120 1    
   116   58  121 1    
   117   59   60 am   BACKBONE|DICT|INTERRES
   118   59  122 1    
   119   60   61 2    
   120   60   62 1    
   121   62   63 1    
   122   62   64 1    
   123   62  123 1    
   124   63  124 1    
   125   63  125 1    
   126   63  126 1    
   127   64   65 am   BACKBONE|DICT|INTERRES
   128   64  127 1    
   129   65   66 2    
@<TRIPOS>SUBSTRUCTURE
     1 UNK         1 GROUP             0       ****    0 ROOT    
