@<TRIPOS>MOLECULE
3R135
127   129    1
SMALL
USER_CHARGES


@<TRIPOS>ATOM
      1 CA        -78.7677   21.8984  -70.3242 C.3       0 UNK        -0.1998 
      2 C         -79.1888   22.8941  -71.3936 C.2       0 UNK         0.4909 
      3 O         -78.7273   22.7992  -72.5306 O.2       0 UNK        -0.5240 
      4 N         -80.0830   23.8321  -71.0447 N.am      1 UNK        -0.4739 
      5 CA        -80.5706   24.9396  -71.8905 C.3       1 UNK         0.0864 
      6 C6        -79.4779   26.0109  -72.1720 C.3       11 UNK        -0.0881 
      7 S7        -78.7662   26.6736  -70.6253 S.3       11 UNK        -0.2682 
      8 C8        -79.2854   28.4212  -70.6669 C.3       11 UNK         0.0289 
      9 C9        -78.4297   29.2606  -71.6077 C.ar      11 UNK        -0.0687 
     10 C10       -79.0226   30.0319  -72.6126 C.ar      11 UNK        -0.0823 
     11 C11       -78.2358   30.8171  -73.4627 C.ar      11 UNK        -0.0830 
     12 C12       -76.8454   30.8134  -73.3149 C.ar      11 UNK        -0.1021 
     13 C13       -76.2432   30.0453  -72.3154 C.ar      11 UNK        -0.0753 
     14 C14       -77.0402   29.2870  -71.4553 C.ar      11 UNK        -0.0933 
     15 C15       -74.7307   29.9932  -72.1923 C.3       11 UNK         0.0166 
     16 S16       -74.0536   31.4862  -71.4129 S.3       11 UNK        -0.2615 
     17 C17       -72.3665   30.9280  -70.9902 C.3       11 UNK        -0.0865 
     18 CA        -71.3852   31.0054  -72.1884 C.3       10 UNK         0.0862 
     19 C         -69.9106   30.9651  -71.7048 C.2       10 UNK         0.5551 
     20 N         -69.3172   32.1194  -71.4345 N.am      10 UNK        -0.7319 
     21 O         -69.3159   29.9024  -71.5330 O.2       10 UNK        -0.5018 
     22 N         -71.6516   29.9417  -73.1662 N.am      10 UNK        -0.4509 
     23 C         -71.3007   29.9809  -74.4533 C.2       10 UNK         0.4899 
     24 O         -70.7887   30.9660  -74.9866 O.2       10 UNK        -0.4839 
     25 CA        -71.5560   28.7284  -75.3127 C.3       9 UNK         0.0222 
     26 CB        -70.2833   27.8652  -75.4063 C.3       9 UNK        -0.1966 
     27 N         -72.7213   27.9034  -74.9569 N.am      9 UNK        -0.4218 
     28 C         -72.9371   27.1402  -73.8744 C.2       9 UNK         0.5020 
     29 O         -72.2356   27.1705  -72.8628 O.2       9 UNK        -0.5274 
     30 CA        -74.1219   26.1529  -73.9369 C.3       8 UNK         0.0270 
     31 CB        -75.4012   26.7561  -73.3424 C.3       8 UNK        -0.1976 
     32 N         -74.4050   25.6712  -75.2915 N.am      8 UNK        -0.4313 
     33 C         -73.5884   24.8791  -76.0024 C.2       8 UNK         0.5041 
     34 O         -72.5218   24.4312  -75.5798 O.2       8 UNK        -0.5577 
     35 CA        -74.0335   24.5346  -77.4298 C.3       7 UNK         0.0284 
     36 CB        -75.0178   23.3577  -77.4126 C.3       7 UNK        -0.1958 
     37 N         -74.6493   25.6880  -78.0881 N.am      7 UNK        -0.4454 
     38 C         -73.9524   26.6654  -78.6850 C.2       7 UNK         0.5089 
     39 O         -72.7270   26.6603  -78.8032 O.2       7 UNK        -0.5125 
     40 CA        -74.7507   27.8603  -79.2361 C.3       6 UNK         0.0408 
     41 CB        -75.1740   27.5981  -80.6900 C.3       6 UNK        -0.1791 
     42 N         -75.9335   28.1935  -78.4385 N.am      6 UNK        -0.4762 
     43 C         -75.9048   28.6499  -77.1774 C.2       6 UNK         0.5007 
     44 O         -74.8685   28.8447  -76.5444 O.2       6 UNK        -0.5032 
     45 CA        -77.2650   28.8953  -76.4972 C.3       5 UNK         0.0783 
     46 C46       -77.7325   30.3505  -76.7486 C.3       11 UNK        -0.0857 
     47 S47       -79.3570   30.7158  -75.9975 S.3       11 UNK        -0.2512 
     48 C48       -78.8914   31.6824  -74.5285 C.3       11 UNK         0.0225 
     49 N         -78.2875   27.9180  -76.8861 N.am      5 UNK        -0.4615 
     50 C         -78.2150   26.5901  -76.7391 C.2       4 UNK         0.5053 
     51 O         -77.2102   25.9947  -76.3383 O.2       4 UNK        -0.5105 
     52 CA        -79.5004   25.8380  -77.1150 C.3       4 UNK         0.0263 
     53 CB        -79.7714   25.8802  -78.6345 C.3       4 UNK        -0.1981 
     54 N         -79.5466   24.4779  -76.5718 N.am      4 UNK        -0.4224 
     55 C         -78.9445   23.3624  -77.0147 C.2       3 UNK         0.4895 
     56 O         -78.2716   23.2974  -78.0436 O.2       3 UNK        -0.5091 
     57 CA        -79.1299   22.0801  -76.1757 C.3       3 UNK         0.0250 
     58 CB        -77.8069   21.6790  -75.5027 C.3       3 UNK        -0.1996 
     59 N         -80.1731   22.2012  -75.1513 N.am      3 UNK        -0.4254 
     60 C         -81.4910   22.1923  -75.4100 C.2       2 UNK         0.5004 
     61 O         -81.9609   21.9635  -76.5250 O.2       2 UNK        -0.5226 
     62 CA        -82.4563   22.5200  -74.2529 C.3       2 UNK         0.0269 
     63 CB        -83.1170   21.2357  -73.7257 C.3       2 UNK        -0.1926 
     64 N         -81.8406   23.2336  -73.1291 N.am      2 UNK        -0.4687 
     65 C         -81.2643   24.4448  -73.1831 C.2       1 UNK         0.5165 
     66 O         -81.2376   25.1307  -74.2063 O.2       1 UNK        -0.5079 
     67 H67       -79.2619   22.0887  -69.3717 H         1 UNK         0.0900 
     68 H68       -79.0128   20.8844  -70.6387 H         1 UNK         0.0900 
     69 H69       -77.6913   21.9555  -70.1653 H         1 UNK         0.0900 
     70 H70       -80.4287   23.8423  -70.0949 H         1 UNK         0.2959 
     71 H71       -81.3618   25.4284  -71.3197 H         1 UNK         0.1079 
     72 H72       -79.8830   26.8371  -72.7593 H         1 UNK         0.0837 
     73 H73       -78.6693   25.5864  -72.7695 H         1 UNK         0.0837 
     74 H74       -79.1982   28.8335  -69.6609 H         1 UNK         0.0685 
     75 H75       -80.3423   28.4790  -70.9321 H         1 UNK         0.0685 
     76 H76       -80.0975   30.0294  -72.7317 H         1 UNK         0.1434 
     77 H77       -76.2279   31.4069  -73.9754 H         1 UNK         0.1329 
     78 H78       -76.5781   28.6940  -70.6779 H         1 UNK         0.1335 
     79 H79       -74.4249   29.1178  -71.6182 H         1 UNK         0.0680 
     80 H80       -74.3056   29.8791  -73.1894 H         1 UNK         0.0680 
     81 H81       -72.3960   29.9206  -70.5704 H         1 UNK         0.1032 
     82 H82       -72.0256   31.5739  -70.1783 H         1 UNK         0.1032 
     83 H83       -71.5403   31.9659  -72.6850 H         1 UNK         0.0461 
     84 H84       -69.7990   32.9959  -71.5629 H         1 UNK         0.3453 
     85 H85       -68.3646   32.1158  -71.1043 H         1 UNK         0.3453 
     86 H86       -71.9609   29.0463  -72.7997 H         1 UNK         0.2984 
     87 H87       -71.7729   29.0929  -76.3182 H         1 UNK         0.0554 
     88 H88       -69.4411   28.4498  -75.7788 H         1 UNK         0.0847 
     89 H89       -70.4238   27.0267  -76.0891 H         1 UNK         0.0847 
     90 H90       -69.9937   27.4626  -74.4351 H         1 UNK         0.0847 
     91 H91       -73.4588   27.9178  -75.6573 H         1 UNK         0.3141 
     92 H92       -73.8508   25.2846  -73.3325 H         1 UNK         0.0743 
     93 H93       -75.2596   27.0050  -72.2909 H         1 UNK         0.0784 
     94 H94       -75.6987   27.6639  -73.8657 H         1 UNK         0.0784 
     95 H95       -76.2341   26.0544  -73.3931 H         1 UNK         0.0784 
     96 H96       -75.2985   25.9336  -75.6978 H         1 UNK         0.3213 
     97 H97       -73.1511   24.2279  -77.9963 H         1 UNK         0.0855 
     98 H98       -75.8993   23.5879  -76.8149 H         1 UNK         0.0814 
     99 H99       -74.5557   22.4684  -76.9822 H         1 UNK         0.0814 
    100 H100      -75.3516   23.0988  -78.4175 H         1 UNK         0.0814 
    101 H101      -75.6519   25.7883  -77.9919 H         1 UNK         0.3105 
    102 H102      -74.0891   28.7292  -79.2266 H         1 UNK         0.0547 
    103 H103      -74.3076   27.3704  -81.3128 H         1 UNK         0.0837 
    104 H104      -75.8603   26.7538  -80.7666 H         1 UNK         0.0837 
    105 H105      -75.6622   28.4699  -81.1257 H         1 UNK         0.0837 
    106 H106      -76.8340   28.0549  -78.8743 H         1 UNK         0.3020 
    107 H107      -77.1086   28.7719  -75.4240 H         1 UNK         0.1245 
    108 H108      -77.8188   30.5431  -77.8199 H         1 UNK         0.0781 
    109 H109      -76.9928   31.0619  -76.3765 H         1 UNK         0.0781 
    110 H110      -79.7887   32.1457  -74.1156 H         1 UNK         0.0836 
    111 H111      -78.2366   32.5051  -74.8204 H         1 UNK         0.0836 
    112 H112      -79.1566   28.3198  -77.2074 H         1 UNK         0.3022 
    113 H113      -80.3224   26.3588  -76.6209 H         1 UNK         0.0747 
    114 H114      -80.6470   25.2869  -78.8981 H         1 UNK         0.0793 
    115 H115      -78.9256   25.5058  -79.2120 H         1 UNK         0.0793 
    116 H116      -79.9615   26.8994  -78.9721 H         1 UNK         0.0793 
    117 H117      -80.0622   24.4098  -75.7007 H         1 UNK         0.3047 
    118 H118      -79.4159   21.2804  -76.8622 H         1 UNK         0.0822 
    119 H119      -77.9284   20.7950  -74.8766 H         1 UNK         0.0807 
    120 H120      -77.4134   22.4820  -74.8778 H         1 UNK         0.0807 
    121 H121      -77.0477   21.4437  -76.2491 H         1 UNK         0.0807 
    122 H122      -79.8542   22.3951  -74.2063 H         1 UNK         0.2946 
    123 H123      -83.2355   23.1653  -74.6649 H         1 UNK         0.1144 
    124 H124      -83.6140   20.6925  -74.5309 H         1 UNK         0.0793 
    125 H125      -83.8741   21.4576  -72.9734 H         1 UNK         0.0793 
    126 H126      -82.3859   20.5600  -73.2798 H         1 UNK         0.0793 
    127 H127      -81.7971   22.7376  -72.2503 H         1 UNK         0.2896 
@<TRIPOS>BOND
     1    1    2 1    
     2    1   67 1    
     3    1   68 1    
     4    1   69 1    
     5    2    3 2    
     6    2    4 am   BACKBONE|DICT|INTERRES
     7    4    5 1    
     8    4   70 1    
     9    5    6 1    
    10    5   65 1    
    11    5   71 1    
    12    6    7 1    
    13    6   72 1    
    14    6   73 1    
    15    7    8 1    
    16    8    9 1    
    17    8   74 1    
    18    8   75 1    
    19    9   10 ar   
    20    9   14 ar   
    21   10   11 ar   
    22   10   76 1    
    23   11   12 ar   
    24   11   48 1    
    25   12   13 ar   
    26   12   77 1    
    27   13   14 ar   
    28   13   15 1    
    29   14   78 1    
    30   15   16 1    
    31   15   79 1    
    32   15   80 1    
    33   16   17 1    
    34   17   18 1    
    35   17   81 1    
    36   17   82 1    
    37   18   19 1    
    38   18   22 1    
    39   18   83 1    
    40   19   20 am   BACKBONE|DICT|INTERRES
    41   19   21 2    
    42   20   84 1    
    43   20   85 1    
    44   22   23 am   BACKBONE|DICT|INTERRES
    45   22   86 1    
    46   23   24 2    
    47   23   25 1    
    48   25   26 1    
    49   25   27 1    
    50   25   87 1    
    51   26   88 1    
    52   26   89 1    
    53   26   90 1    
    54   27   28 am   BACKBONE|DICT|INTERRES
    55   27   91 1    
    56   28   29 2    
    57   28   30 1    
    58   30   31 1    
    59   30   32 1    
    60   30   92 1    
    61   31   93 1    
    62   31   94 1    
    63   31   95 1    
    64   32   33 am   BACKBONE|DICT|INTERRES
    65   32   96 1    
    66   33   34 2    
    67   33   35 1    
    68   35   36 1    
    69   35   37 1    
    70   35   97 1    
    71   36   98 1    
    72   36   99 1    
    73   36  100 1    
    74   37   38 am   BACKBONE|DICT|INTERRES
    75   37  101 1    
    76   38   39 2    
    77   38   40 1    
    78   40   41 1    
    79   40   42 1    
    80   40  102 1    
    81   41  103 1    
    82   41  104 1    
    83   41  105 1    
    84   42   43 am   BACKBONE|DICT|INTERRES
    85   42  106 1    
    86   43   44 2    
    87   43   45 1    
    88   45   46 1    
    89   45   49 1    
    90   45  107 1    
    91   46   47 1    
    92   46  108 1    
    93   46  109 1    
    94   47   48 1    
    95   48  110 1    
    96   48  111 1    
    97   49   50 am   BACKBONE|DICT|INTERRES
    98   49  112 1    
    99   50   51 2    
   100   50   52 1    
   101   52   53 1    
   102   52   54 1    
   103   52  113 1    
   104   53  114 1    
   105   53  115 1    
   106   53  116 1    
   107   54   55 am   BACKBONE|DICT|INTERRES
   108   54  117 1    
   109   55   56 2    
   110   55   57 1    
   111   57   58 1    
   112   57   59 1    
   113   57  118 1    
   114   58  119 1    
   115   58  120 1    
   116   58  121 1    
   117   59   60 am   BACKBONE|DICT|INTERRES
   118   59  122 1    
   119   60   61 2    
   120   60   62 1    
   121   62   63 1    
   122   62   64 1    
   123   62  123 1    
   124   63  124 1    
   125   63  125 1    
   126   63  126 1    
   127   64   65 am   BACKBONE|DICT|INTERRES
   128   64  127 1    
   129   65   66 2    
@<TRIPOS>SUBSTRUCTURE
     1 UNK         1 GROUP             0       ****    0 ROOT    
