@<TRIPOS>MOLECULE
3R135
127   129    1
SMALL
USER_CHARGES


@<TRIPOS>ATOM
      1 CA        -78.0505   22.7487  -69.1955 C.3       0 UNK        -0.1998 
      2 C         -79.2820   22.9019  -70.0759 C.2       0 UNK         0.4909 
      3 O         -80.0571   21.9547  -70.2162 O.2       0 UNK        -0.5240 
      4 N         -79.4723   24.0912  -70.6598 N.am      1 UNK        -0.4739 
      5 CA        -80.5681   24.4090  -71.5841 C.3       1 UNK         0.0864 
      6 C6        -80.7304   25.9388  -71.7847 C.3       11 UNK        -0.0881 
      7 S7        -80.8957   26.8485  -70.2134 S.3       11 UNK        -0.2682 
      8 C8        -81.1315   28.5565  -70.8040 C.3       11 UNK         0.0289 
      9 C9        -79.9298   29.1091  -71.5652 C.ar      11 UNK        -0.0687 
     10 C10       -80.0945   29.6151  -72.8588 C.ar      11 UNK        -0.0823 
     11 C11       -79.0226   30.1888  -73.5501 C.ar      11 UNK        -0.0830 
     12 C12       -77.7672   30.2299  -72.9284 C.ar      11 UNK        -0.1021 
     13 C13       -77.5743   29.7068  -71.6470 C.ar      11 UNK        -0.0753 
     14 C14       -78.6667   29.1596  -70.9655 C.ar      11 UNK        -0.0933 
     15 C15       -76.1993   29.7519  -70.9839 C.3       11 UNK         0.0166 
     16 S16       -74.8821   28.9934  -72.0005 S.3       11 UNK        -0.2615 
     17 C17       -74.1385   30.4516  -72.8171 C.3       11 UNK        -0.0865 
     18 CA        -72.6725   30.2584  -73.2856 C.3       10 UNK         0.0862 
     19 C         -71.6938   29.9540  -72.1100 C.2       10 UNK         0.5551 
     20 N         -70.9651   28.8432  -72.1099 N.am      10 UNK        -0.7319 
     21 O         -71.5821   30.7566  -71.1862 O.2       10 UNK        -0.5018 
     22 N         -72.5660   29.3508  -74.4422 N.am      10 UNK        -0.4509 
     23 C         -71.5382   29.3734  -75.3061 C.2       10 UNK         0.4899 
     24 O         -70.6610   30.2390  -75.2875 O.2       10 UNK        -0.4839 
     25 CA        -71.4577   28.2463  -76.3589 C.3       9 UNK         0.0222 
     26 CB        -70.0178   28.0068  -76.8599 C.3       9 UNK        -0.1966 
     27 N         -72.0580   26.9801  -75.9277 N.am      9 UNK        -0.4218 
     28 C         -71.7669   26.2580  -74.8338 C.2       9 UNK         0.5020 
     29 O         -70.8926   26.5682  -74.0230 O.2       9 UNK        -0.5274 
     30 CA        -72.6129   24.9984  -74.5745 C.3       8 UNK         0.0270 
     31 CB        -73.2862   25.0751  -73.1923 C.3       8 UNK        -0.1976 
     32 N         -73.6481   24.8213  -75.5995 N.am      8 UNK        -0.4313 
     33 C         -73.7036   23.8016  -76.4656 C.2       8 UNK         0.5041 
     34 O         -72.9169   22.8536  -76.4578 O.2       8 UNK        -0.5577 
     35 CA        -74.8092   23.8351  -77.5357 C.3       7 UNK         0.0284 
     36 CB        -76.0616   23.0804  -77.0588 C.3       7 UNK        -0.1958 
     37 N         -75.1848   25.1780  -77.9920 N.am      7 UNK        -0.4454 
     38 C         -74.3958   25.9797  -78.7237 C.2       7 UNK         0.5089 
     39 O         -73.2106   25.7448  -78.9559 O.2       7 UNK        -0.5125 
     40 CA        -75.0308   27.2565  -79.2936 C.3       6 UNK         0.0408 
     41 CB        -75.9791   26.9166  -80.4554 C.3       6 UNK        -0.1791 
     42 N         -75.7707   27.9724  -78.2580 N.am      6 UNK        -0.4762 
     43 C         -75.3580   29.0979  -77.6578 C.2       6 UNK         0.5007 
     44 O         -74.3478   29.7200  -77.9863 O.2       6 UNK        -0.5032 
     45 CA        -76.2017   29.6132  -76.4694 C.3       5 UNK         0.0783 
     46 C46       -77.2669   30.6189  -76.9757 C.3       11 UNK        -0.0857 
     47 S47       -77.9018   31.7247  -75.6728 S.3       11 UNK        -0.2512 
     48 C48       -79.2828   30.7697  -74.9450 C.3       11 UNK         0.0225 
     49 N         -76.8160   28.5256  -75.6964 N.am      5 UNK        -0.4615 
     50 C         -76.1731   27.4822  -75.1550 C.2       4 UNK         0.5053 
     51 O         -74.9481   27.3719  -75.1361 O.2       4 UNK        -0.5105 
     52 CA        -77.0308   26.3134  -74.6354 C.3       4 UNK         0.0263 
     53 CB        -77.1363   26.3460  -73.1064 C.3       4 UNK        -0.1981 
     54 N         -78.3746   26.2202  -75.2238 N.am      4 UNK        -0.4224 
     55 C         -78.6526   26.0895  -76.5303 C.2       3 UNK         0.4895 
     56 O         -77.7896   26.0692  -77.4108 O.2       3 UNK        -0.5091 
     57 CA        -80.1446   25.9998  -76.9023 C.3       3 UNK         0.0250 
     58 CB        -80.3747   25.7727  -78.4124 C.3       3 UNK        -0.1996 
     59 N         -80.8643   25.0056  -76.0944 N.am      3 UNK        -0.4254 
     60 C         -80.6512   23.6798  -76.0582 C.2       2 UNK         0.5004 
     61 O         -79.8300   23.0885  -76.7612 O.2       2 UNK        -0.5226 
     62 CA        -81.5004   22.8986  -75.0326 C.3       2 UNK         0.0269 
     63 CB        -81.1404   21.3979  -74.9715 C.3       2 UNK        -0.1926 
     64 N         -81.4559   23.4968  -73.6873 N.am      2 UNK        -0.4687 
     65 C         -80.3570   23.7119  -72.9459 C.2       1 UNK         0.5165 
     66 O         -79.2149   23.4295  -73.3158 O.2       1 UNK        -0.5079 
     67 H67       -77.4633   23.6659  -69.1530 H         1 UNK         0.0900 
     68 H68       -77.4113   21.9548  -69.5808 H         1 UNK         0.0900 
     69 H69       -78.3452   22.4872  -68.1796 H         1 UNK         0.0900 
     70 H70       -78.8073   24.8346  -70.5055 H         1 UNK         0.2959 
     71 H71       -81.4908   24.0193  -71.1477 H         1 UNK         0.1079 
     72 H72       -79.8786   26.3506  -72.3248 H         1 UNK         0.0837 
     73 H73       -81.6111   26.1529  -72.3932 H         1 UNK         0.0837 
     74 H74       -81.3225   29.1985  -69.9432 H         1 UNK         0.0685 
     75 H75       -82.0332   28.5928  -71.4173 H         1 UNK         0.0685 
     76 H76       -81.0717   29.5877  -73.3220 H         1 UNK         0.1434 
     77 H77       -76.9248   30.6681  -73.4357 H         1 UNK         0.1329 
     78 H78       -78.5385   28.7709  -69.9645 H         1 UNK         0.1335 
     79 H79       -76.2266   29.2182  -70.0328 H         1 UNK         0.0680 
     80 H80       -75.9503   30.7851  -70.7404 H         1 UNK         0.0680 
     81 H81       -74.7507   30.7341  -73.6714 H         1 UNK         0.1032 
     82 H82       -74.1851   31.3009  -72.1334 H         1 UNK         0.1032 
     83 H83       -72.3608   31.2409  -73.6462 H         1 UNK         0.0461 
     84 H84       -70.3350   28.6705  -71.3435 H         1 UNK         0.3453 
     85 H85       -71.0361   28.1664  -72.8629 H         1 UNK         0.3453 
     86 H86       -73.2556   28.6103  -74.5057 H         1 UNK         0.2984 
     87 H87       -72.0483   28.5844  -77.2104 H         1 UNK         0.0554 
     88 H88       -69.6034   28.9077  -77.3142 H         1 UNK         0.0847 
     89 H89       -69.9867   27.2229  -77.6166 H         1 UNK         0.0847 
     90 H90       -69.3517   27.7156  -76.0469 H         1 UNK         0.0847 
     91 H91       -72.7957   26.6328  -76.5228 H         1 UNK         0.3141 
     92 H92       -71.9247   24.1511  -74.5718 H         1 UNK         0.0743 
     93 H93       -73.9373   24.2188  -73.0161 H         1 UNK         0.0784 
     94 H94       -72.5408   25.0851  -72.3961 H         1 UNK         0.0784 
     95 H95       -73.8822   25.9812  -73.0845 H         1 UNK         0.0784 
     96 H96       -74.3265   25.5739  -75.6637 H         1 UNK         0.3213 
     97 H97       -74.4189   23.3013  -78.4053 H         1 UNK         0.0855 
     98 H98       -76.5250   23.5515  -76.1934 H         1 UNK         0.0814 
     99 H99       -75.8146   22.0565  -76.7750 H         1 UNK         0.0814 
    100 H100      -76.8153   23.0236  -77.8447 H         1 UNK         0.0814 
    101 H101      -76.1539   25.4542  -77.8401 H         1 UNK         0.3105 
    102 H102      -74.2271   27.8799  -79.6911 H         1 UNK         0.0547 
    103 H103      -76.8212   26.3040  -80.1305 H         1 UNK         0.0837 
    104 H104      -76.3824   27.8208  -80.9113 H         1 UNK         0.0837 
    105 H105      -75.4561   26.3653  -81.2380 H         1 UNK         0.0837 
    106 H106      -76.6016   27.5076  -77.9030 H         1 UNK         0.3020 
    107 H107      -75.5073   30.1341  -75.8086 H         1 UNK         0.1245 
    108 H108      -78.0938   30.1051  -77.4694 H         1 UNK         0.0781 
    109 H109      -76.8394   31.2782  -77.7346 H         1 UNK         0.0781 
    110 H110      -80.1398   31.4418  -74.8799 H         1 UNK         0.0836 
    111 H111      -79.5823   29.9678  -75.6202 H         1 UNK         0.0836 
    112 H112      -77.8216   28.5352  -75.6392 H         1 UNK         0.3022 
    113 H113      -76.5013   25.3993  -74.9015 H         1 UNK         0.0747 
    114 H114      -76.1528   26.4180  -72.6436 H         1 UNK         0.0793 
    115 H115      -77.5977   25.4393  -72.7190 H         1 UNK         0.0793 
    116 H116      -77.7188   27.1990  -72.7660 H         1 UNK         0.0793 
    117 H117      -79.1447   26.2064  -74.5737 H         1 UNK         0.3047 
    118 H118      -80.5769   26.9700  -76.6528 H         1 UNK         0.0822 
    119 H119      -79.9412   26.5841  -78.9985 H         1 UNK         0.0807 
    120 H120      -81.4373   25.7330  -78.6513 H         1 UNK         0.0807 
    121 H121      -79.9172   24.8460  -78.7603 H         1 UNK         0.0807 
    122 H122      -81.5715   25.3774  -75.4755 H         1 UNK         0.2946 
    123 H123      -82.5334   22.9712  -75.3781 H         1 UNK         0.1144 
    124 H124      -81.2708   20.9252  -75.9458 H         1 UNK         0.0793 
    125 H125      -81.7779   20.8651  -74.2661 H         1 UNK         0.0793 
    126 H126      -80.1038   21.2402  -74.6714 H         1 UNK         0.0793 
    127 H127      -82.3515   23.7728  -73.3070 H         1 UNK         0.2896 
@<TRIPOS>BOND
     1    1    2 1    
     2    1   67 1    
     3    1   68 1    
     4    1   69 1    
     5    2    3 2    
     6    2    4 am   BACKBONE|DICT|INTERRES
     7    4    5 1    
     8    4   70 1    
     9    5    6 1    
    10    5   65 1    
    11    5   71 1    
    12    6    7 1    
    13    6   72 1    
    14    6   73 1    
    15    7    8 1    
    16    8    9 1    
    17    8   74 1    
    18    8   75 1    
    19    9   10 ar   
    20    9   14 ar   
    21   10   11 ar   
    22   10   76 1    
    23   11   12 ar   
    24   11   48 1    
    25   12   13 ar   
    26   12   77 1    
    27   13   14 ar   
    28   13   15 1    
    29   14   78 1    
    30   15   16 1    
    31   15   79 1    
    32   15   80 1    
    33   16   17 1    
    34   17   18 1    
    35   17   81 1    
    36   17   82 1    
    37   18   19 1    
    38   18   22 1    
    39   18   83 1    
    40   19   20 am   BACKBONE|DICT|INTERRES
    41   19   21 2    
    42   20   84 1    
    43   20   85 1    
    44   22   23 am   BACKBONE|DICT|INTERRES
    45   22   86 1    
    46   23   24 2    
    47   23   25 1    
    48   25   26 1    
    49   25   27 1    
    50   25   87 1    
    51   26   88 1    
    52   26   89 1    
    53   26   90 1    
    54   27   28 am   BACKBONE|DICT|INTERRES
    55   27   91 1    
    56   28   29 2    
    57   28   30 1    
    58   30   31 1    
    59   30   32 1    
    60   30   92 1    
    61   31   93 1    
    62   31   94 1    
    63   31   95 1    
    64   32   33 am   BACKBONE|DICT|INTERRES
    65   32   96 1    
    66   33   34 2    
    67   33   35 1    
    68   35   36 1    
    69   35   37 1    
    70   35   97 1    
    71   36   98 1    
    72   36   99 1    
    73   36  100 1    
    74   37   38 am   BACKBONE|DICT|INTERRES
    75   37  101 1    
    76   38   39 2    
    77   38   40 1    
    78   40   41 1    
    79   40   42 1    
    80   40  102 1    
    81   41  103 1    
    82   41  104 1    
    83   41  105 1    
    84   42   43 am   BACKBONE|DICT|INTERRES
    85   42  106 1    
    86   43   44 2    
    87   43   45 1    
    88   45   46 1    
    89   45   49 1    
    90   45  107 1    
    91   46   47 1    
    92   46  108 1    
    93   46  109 1    
    94   47   48 1    
    95   48  110 1    
    96   48  111 1    
    97   49   50 am   BACKBONE|DICT|INTERRES
    98   49  112 1    
    99   50   51 2    
   100   50   52 1    
   101   52   53 1    
   102   52   54 1    
   103   52  113 1    
   104   53  114 1    
   105   53  115 1    
   106   53  116 1    
   107   54   55 am   BACKBONE|DICT|INTERRES
   108   54  117 1    
   109   55   56 2    
   110   55   57 1    
   111   57   58 1    
   112   57   59 1    
   113   57  118 1    
   114   58  119 1    
   115   58  120 1    
   116   58  121 1    
   117   59   60 am   BACKBONE|DICT|INTERRES
   118   59  122 1    
   119   60   61 2    
   120   60   62 1    
   121   62   63 1    
   122   62   64 1    
   123   62  123 1    
   124   63  124 1    
   125   63  125 1    
   126   63  126 1    
   127   64   65 am   BACKBONE|DICT|INTERRES
   128   64  127 1    
   129   65   66 2    
@<TRIPOS>SUBSTRUCTURE
     1 UNK         1 GROUP             0       ****    0 ROOT    
