@<TRIPOS>MOLECULE
3R135
127   129    1
SMALL
USER_CHARGES


@<TRIPOS>ATOM
      1 CA        -83.4554   25.2614  -73.3421 C.3       0 UNK        -0.1998 
      2 C         -82.5375   26.0079  -74.2973 C.2       0 UNK         0.4909 
      3 O         -82.7835   26.0047  -75.5038 O.2       0 UNK        -0.5240 
      4 N         -81.4800   26.6375  -73.7659 N.am      1 UNK        -0.4739 
      5 CA        -80.4665   27.4159  -74.4899 C.3       1 UNK         0.0864 
      6 C6        -79.4004   27.9857  -73.5296 C.3       11 UNK        -0.0881 
      7 S7        -80.0820   29.2109  -72.3578 S.3       11 UNK        -0.2682 
      8 C8        -79.2113   28.8074  -70.8017 C.3       11 UNK         0.0289 
      9 C9        -77.7339   28.4979  -71.0140 C.ar      11 UNK        -0.0687 
     10 C10       -77.2173   27.2597  -70.6221 C.ar      11 UNK        -0.0823 
     11 C11       -75.8885   26.9245  -70.8959 C.ar      11 UNK        -0.0830 
     12 C12       -75.0694   27.8447  -71.5589 C.ar      11 UNK        -0.1021 
     13 C13       -75.5707   29.0934  -71.9395 C.ar      11 UNK        -0.0753 
     14 C14       -76.8983   29.4199  -71.6515 C.ar      11 UNK        -0.0933 
     15 C15       -74.6938   30.0802  -72.6913 C.3       11 UNK         0.0166 
     16 S16       -73.7282   31.1091  -71.5465 S.3       11 UNK        -0.2615 
     17 C17       -73.1200   32.4681  -72.6121 C.3       11 UNK        -0.0865 
     18 CA        -72.6752   32.0920  -74.0609 C.3       10 UNK         0.0862 
     19 C         -72.2366   33.3415  -74.8844 C.2       10 UNK         0.5551 
     20 N         -71.2579   33.2381  -75.7756 N.am      10 UNK        -0.7319 
     21 O         -72.8107   34.4180  -74.7369 O.2       10 UNK        -0.5018 
     22 N         -71.7312   30.9610  -74.1254 N.am      10 UNK        -0.4509 
     23 C         -70.5319   30.8868  -73.5288 C.2       10 UNK         0.4899 
     24 O         -70.0684   31.7816  -72.8207 O.2       10 UNK        -0.4839 
     25 CA        -69.6640   29.6367  -73.7900 C.3       9 UNK         0.0222 
     26 CB        -69.1389   29.0165  -72.4774 C.3       9 UNK        -0.1966 
     27 N         -70.2832   28.6252  -74.6594 N.am      9 UNK        -0.4218 
     28 C         -71.3181   27.8191  -74.3833 C.2       9 UNK         0.5020 
     29 O         -71.8868   27.7512  -73.2927 O.2       9 UNK        -0.5274 
     30 CA        -71.8131   26.9488  -75.5496 C.3       8 UNK         0.0270 
     31 CB        -71.4242   25.4787  -75.3283 C.3       8 UNK        -0.1976 
     32 N         -73.2620   27.0547  -75.7462 N.am      8 UNK        -0.4313 
     33 C         -73.9199   28.1944  -76.0204 C.2       8 UNK         0.5041 
     34 O         -73.3579   29.2883  -76.1194 O.2       8 UNK        -0.5577 
     35 CA        -75.4534   28.1118  -76.2072 C.3       7 UNK         0.0284 
     36 CB        -76.0074   29.2394  -77.1020 C.3       7 UNK        -0.1958 
     37 N         -75.9294   26.8029  -76.6717 N.am      7 UNK        -0.4454 
     38 C         -75.5703   26.1366  -77.7829 C.2       7 UNK         0.5089 
     39 O         -74.8702   26.6133  -78.6764 O.2       7 UNK        -0.5125 
     40 CA        -76.0508   24.6693  -77.8829 C.3       6 UNK         0.0408 
     41 CB        -75.0554   23.7757  -78.6534 C.3       6 UNK        -0.1791 
     42 N         -76.3837   24.0847  -76.5706 N.am      6 UNK        -0.4762 
     43 C         -75.5363   23.9333  -75.5379 C.2       6 UNK         0.5007 
     44 O         -74.3324   24.1743  -75.6218 O.2       6 UNK        -0.5032 
     45 CA        -76.1168   23.5623  -74.1616 C.3       5 UNK         0.0783 
     46 C46       -75.6523   24.6078  -73.1117 C.3       11 UNK        -0.0857 
     47 S47       -76.1572   24.2048  -71.4087 S.3       11 UNK        -0.2512 
     48 C48       -75.3500   25.5584  -70.4916 C.3       11 UNK         0.0225 
     49 N         -77.5811   23.4590  -74.1989 N.am      5 UNK        -0.4615 
     50 C         -78.2727   22.3722  -73.8386 C.2       4 UNK         0.5053 
     51 O         -77.7649   21.2767  -73.5976 O.2       4 UNK        -0.5105 
     52 CA        -79.7883   22.5488  -73.6918 C.3       4 UNK         0.0263 
     53 CB        -80.1122   23.5413  -72.5601 C.3       4 UNK        -0.1981 
     54 N         -80.4006   23.0036  -74.9404 N.am      4 UNK        -0.4224 
     55 C         -80.9891   22.1946  -75.8337 C.2       3 UNK         0.4895 
     56 O         -81.0400   20.9698  -75.7150 O.2       3 UNK        -0.5091 
     57 CA        -81.6650   22.8438  -77.0560 C.3       3 UNK         0.0250 
     58 CB        -83.1946   22.8192  -76.8988 C.3       3 UNK        -0.1996 
     59 N         -81.2316   24.2235  -77.2869 N.am      3 UNK        -0.4254 
     60 C         -80.1240   24.5573  -77.9637 C.2       2 UNK         0.5004 
     61 O         -79.3835   23.7375  -78.5047 O.2       2 UNK        -0.5226 
     62 CA        -79.7574   26.0523  -78.0226 C.3       2 UNK         0.0269 
     63 CB        -80.3350   26.6993  -79.2907 C.3       2 UNK        -0.1926 
     64 N         -80.1932   26.8105  -76.8482 N.am      2 UNK        -0.4687 
     65 C         -79.7879   26.5804  -75.5925 C.2       1 UNK         0.5165 
     66 O         -78.9545   25.7210  -75.2867 O.2       1 UNK        -0.5079 
     67 H67       -84.4795   25.6164  -73.4535 H         1 UNK         0.0900 
     68 H68       -83.4387   24.1946  -73.5631 H         1 UNK         0.0900 
     69 H69       -83.1609   25.3986  -72.3019 H         1 UNK         0.0900 
     70 H70       -81.3515   26.6112  -72.7647 H         1 UNK         0.2959 
     71 H71       -80.9776   28.2559  -74.9652 H         1 UNK         0.1079 
     72 H72       -78.6007   28.4808  -74.0849 H         1 UNK         0.0837 
     73 H73       -78.9281   27.1675  -72.9829 H         1 UNK         0.0837 
     74 H74       -79.7186   27.9626  -70.3333 H         1 UNK         0.0685 
     75 H75       -79.3073   29.6465  -70.1116 H         1 UNK         0.0685 
     76 H76       -77.8562   26.5375  -70.1320 H         1 UNK         0.1434 
     77 H77       -74.0427   27.5907  -71.7863 H         1 UNK         0.1329 
     78 H78       -77.2956   30.3779  -71.9580 H         1 UNK         0.1335 
     79 H79       -74.0158   29.5398  -73.3511 H         1 UNK         0.0680 
     80 H80       -75.3117   30.7166  -73.3266 H         1 UNK         0.0680 
     81 H81       -72.3015   32.9598  -72.0843 H         1 UNK         0.1032 
     82 H82       -73.9191   33.2103  -72.6563 H         1 UNK         0.1032 
     83 H83       -73.5609   31.7406  -74.5894 H         1 UNK         0.0461 
     84 H84       -70.7925   32.3566  -75.9194 H         1 UNK         0.3453 
     85 H85       -70.9875   34.0479  -76.3111 H         1 UNK         0.3453 
     86 H86       -72.0323   30.1956  -74.7184 H         1 UNK         0.2984 
     87 H87       -68.7953   29.9961  -74.3435 H         1 UNK         0.0554 
     88 H88       -68.5267   29.7312  -71.9261 H         1 UNK         0.0847 
     89 H89       -68.5184   28.1414  -72.6695 H         1 UNK         0.0847 
     90 H90       -69.9515   28.7153  -71.8157 H         1 UNK         0.0847 
     91 H91       -69.9094   28.5930  -75.5986 H         1 UNK         0.3141 
     92 H92       -71.3398   27.2893  -76.4729 H         1 UNK         0.0743 
     93 H93       -70.3472   25.3739  -75.1910 H         1 UNK         0.0784 
     94 H94       -71.7032   24.8613  -76.1825 H         1 UNK         0.0784 
     95 H95       -71.9086   25.0644  -74.4428 H         1 UNK         0.0784 
     96 H96       -73.7819   26.1865  -75.6823 H         1 UNK         0.3213 
     97 H97       -75.8762   28.2491  -75.2104 H         1 UNK         0.0855 
     98 H98       -75.5795   29.2047  -78.1044 H         1 UNK         0.0814 
     99 H99       -75.7772   30.2204  -76.6844 H         1 UNK         0.0814 
    100 H100      -77.0914   29.1753  -77.1963 H         1 UNK         0.0814 
    101 H101      -76.5366   26.3106  -76.0306 H         1 UNK         0.3105 
    102 H102      -76.9699   24.6867  -78.4641 H         1 UNK         0.0547 
    103 H103      -75.4007   22.7430  -78.6960 H         1 UNK         0.0837 
    104 H104      -74.0638   23.7809  -78.2002 H         1 UNK         0.0837 
    105 H105      -74.9398   24.1189  -79.6821 H         1 UNK         0.0837 
    106 H106      -77.3589   23.8634  -76.4195 H         1 UNK         0.3020 
    107 H107      -75.6722   22.5988  -73.9026 H         1 UNK         0.1245 
    108 H108      -76.0466   25.5945  -73.3629 H         1 UNK         0.0781 
    109 H109      -74.5642   24.7035  -73.1087 H         1 UNK         0.0781 
    110 H110      -74.2711   25.5032  -70.6454 H         1 UNK         0.0836 
    111 H111      -75.5148   25.4104  -69.4235 H         1 UNK         0.0836 
    112 H112      -78.0846   24.3170  -74.4098 H         1 UNK         0.3022 
    113 H113      -80.2069   21.5818  -73.4036 H         1 UNK         0.0747 
    114 H114      -81.1843   23.5897  -72.3736 H         1 UNK         0.0793 
    115 H115      -79.6381   23.2338  -71.6268 H         1 UNK         0.0793 
    116 H116      -79.7611   24.5493  -72.7817 H         1 UNK         0.0793 
    117 H117      -80.3364   23.9908  -75.1479 H         1 UNK         0.3047 
    118 H118      -81.4089   22.2383  -77.9284 H         1 UNK         0.0822 
    119 H119      -83.6900   23.2313  -77.7780 H         1 UNK         0.0807 
    120 H120      -83.5230   23.3914  -76.0308 H         1 UNK         0.0807 
    121 H121      -83.5584   21.7985  -76.7720 H         1 UNK         0.0807 
    122 H122      -81.7859   24.9567  -76.8512 H         1 UNK         0.2946 
    123 H123      -78.6715   26.1273  -78.0705 H         1 UNK         0.1144 
    124 H124      -80.0104   27.7352  -79.3915 H         1 UNK         0.0793 
    125 H125      -81.4258   26.6863  -79.2900 H         1 UNK         0.0793 
    126 H126      -80.0031   26.1695  -80.1849 H         1 UNK         0.0793 
    127 H127      -80.9174   27.4980  -77.0030 H         1 UNK         0.2896 
@<TRIPOS>BOND
     1    1    2 1    
     2    1   67 1    
     3    1   68 1    
     4    1   69 1    
     5    2    3 2    
     6    2    4 am   BACKBONE|DICT|INTERRES
     7    4    5 1    
     8    4   70 1    
     9    5    6 1    
    10    5   65 1    
    11    5   71 1    
    12    6    7 1    
    13    6   72 1    
    14    6   73 1    
    15    7    8 1    
    16    8    9 1    
    17    8   74 1    
    18    8   75 1    
    19    9   10 ar   
    20    9   14 ar   
    21   10   11 ar   
    22   10   76 1    
    23   11   12 ar   
    24   11   48 1    
    25   12   13 ar   
    26   12   77 1    
    27   13   14 ar   
    28   13   15 1    
    29   14   78 1    
    30   15   16 1    
    31   15   79 1    
    32   15   80 1    
    33   16   17 1    
    34   17   18 1    
    35   17   81 1    
    36   17   82 1    
    37   18   19 1    
    38   18   22 1    
    39   18   83 1    
    40   19   20 am   BACKBONE|DICT|INTERRES
    41   19   21 2    
    42   20   84 1    
    43   20   85 1    
    44   22   23 am   BACKBONE|DICT|INTERRES
    45   22   86 1    
    46   23   24 2    
    47   23   25 1    
    48   25   26 1    
    49   25   27 1    
    50   25   87 1    
    51   26   88 1    
    52   26   89 1    
    53   26   90 1    
    54   27   28 am   BACKBONE|DICT|INTERRES
    55   27   91 1    
    56   28   29 2    
    57   28   30 1    
    58   30   31 1    
    59   30   32 1    
    60   30   92 1    
    61   31   93 1    
    62   31   94 1    
    63   31   95 1    
    64   32   33 am   BACKBONE|DICT|INTERRES
    65   32   96 1    
    66   33   34 2    
    67   33   35 1    
    68   35   36 1    
    69   35   37 1    
    70   35   97 1    
    71   36   98 1    
    72   36   99 1    
    73   36  100 1    
    74   37   38 am   BACKBONE|DICT|INTERRES
    75   37  101 1    
    76   38   39 2    
    77   38   40 1    
    78   40   41 1    
    79   40   42 1    
    80   40  102 1    
    81   41  103 1    
    82   41  104 1    
    83   41  105 1    
    84   42   43 am   BACKBONE|DICT|INTERRES
    85   42  106 1    
    86   43   44 2    
    87   43   45 1    
    88   45   46 1    
    89   45   49 1    
    90   45  107 1    
    91   46   47 1    
    92   46  108 1    
    93   46  109 1    
    94   47   48 1    
    95   48  110 1    
    96   48  111 1    
    97   49   50 am   BACKBONE|DICT|INTERRES
    98   49  112 1    
    99   50   51 2    
   100   50   52 1    
   101   52   53 1    
   102   52   54 1    
   103   52  113 1    
   104   53  114 1    
   105   53  115 1    
   106   53  116 1    
   107   54   55 am   BACKBONE|DICT|INTERRES
   108   54  117 1    
   109   55   56 2    
   110   55   57 1    
   111   57   58 1    
   112   57   59 1    
   113   57  118 1    
   114   58  119 1    
   115   58  120 1    
   116   58  121 1    
   117   59   60 am   BACKBONE|DICT|INTERRES
   118   59  122 1    
   119   60   61 2    
   120   60   62 1    
   121   62   63 1    
   122   62   64 1    
   123   62  123 1    
   124   63  124 1    
   125   63  125 1    
   126   63  126 1    
   127   64   65 am   BACKBONE|DICT|INTERRES
   128   64  127 1    
   129   65   66 2    
@<TRIPOS>SUBSTRUCTURE
     1 UNK         1 GROUP             0       ****    0 ROOT    
