@<TRIPOS>MOLECULE
3R135
127   129    1
SMALL
USER_CHARGES


@<TRIPOS>ATOM
      1 CA        -77.9311   23.4983  -67.9677 C.3       0 UNK        -0.1998 
      2 C         -78.3558   24.1724  -69.2635 C.2       0 UNK         0.4909 
      3 O         -77.5137   24.4077  -70.1306 O.2       0 UNK        -0.5240 
      4 N         -79.6538   24.4846  -69.3947 N.am      1 UNK        -0.4739 
      5 CA        -80.3043   25.0988  -70.5594 C.3       1 UNK         0.0864 
      6 C6        -79.7042   26.4826  -70.9329 C.3       11 UNK        -0.0881 
      7 S7        -80.7946   27.4854  -72.0016 S.3       11 UNK        -0.2682 
      8 C8        -79.7452   27.7479  -73.4740 C.3       11 UNK         0.0289 
      9 C9        -78.8371   28.9747  -73.3738 C.ar      11 UNK        -0.0687 
     10 C10       -78.7648   29.8740  -74.4447 C.ar      11 UNK        -0.0823 
     11 C11       -77.9023   30.9746  -74.3936 C.ar      11 UNK        -0.0830 
     12 C12       -77.1402   31.2012  -73.2460 C.ar      11 UNK        -0.1021 
     13 C13       -77.1837   30.3040  -72.1794 C.ar      11 UNK        -0.0753 
     14 C14       -78.0319   29.1965  -72.2491 C.ar      11 UNK        -0.0933 
     15 C15       -76.3005   30.5158  -70.9601 C.3       11 UNK         0.0166 
     16 S16       -74.6559   29.7681  -71.1939 S.3       11 UNK        -0.2615 
     17 C17       -73.7403   31.0831  -72.0767 C.3       11 UNK        -0.0865 
     18 CA        -73.5898   30.8466  -73.6102 C.3       10 UNK         0.0862 
     19 C         -72.9050   32.0434  -74.3365 C.2       10 UNK         0.5551 
     20 N         -72.1349   31.8206  -75.3950 N.am      10 UNK        -0.7319 
     21 O         -73.0928   33.1959  -73.9540 O.2       10 UNK        -0.5018 
     22 N         -73.0433   29.5275  -73.9641 N.am      10 UNK        -0.4509 
     23 C         -71.8571   29.0181  -73.6068 C.2       10 UNK         0.4899 
     24 O         -71.0309   29.6084  -72.9090 O.2       10 UNK        -0.4839 
     25 CA        -71.5469   27.6082  -74.1473 C.3       9 UNK         0.0222 
     26 CB        -70.3774   26.9125  -73.4189 C.3       9 UNK        -0.1966 
     27 N         -72.7441   26.7609  -74.1890 N.am      9 UNK        -0.4218 
     28 C         -73.4705   26.3032  -73.1567 C.2       9 UNK         0.5020 
     29 O         -73.1487   26.4225  -71.9741 O.2       9 UNK        -0.5274 
     30 CA        -74.7986   25.6006  -73.5010 C.3       8 UNK         0.0270 
     31 CB        -75.9788   26.5555  -73.2584 C.3       8 UNK        -0.1976 
     32 N         -74.8564   25.1110  -74.8818 N.am      8 UNK        -0.4313 
     33 C         -74.1547   24.0692  -75.3507 C.2       8 UNK         0.5041 
     34 O         -73.4455   23.3464  -74.6503 O.2       8 UNK        -0.5577 
     35 CA        -74.2248   23.8180  -76.8654 C.3       7 UNK         0.0284 
     36 CB        -75.4454   22.9549  -77.2271 C.3       7 UNK        -0.1958 
     37 N         -74.2449   25.0696  -77.6299 N.am      7 UNK        -0.4454 
     38 C         -73.1832   25.8744  -77.7888 C.2       7 UNK         0.5089 
     39 O         -72.0641   25.6273  -77.3412 O.2       7 UNK        -0.5125 
     40 CA        -73.4085   27.1921  -78.5517 C.3       6 UNK         0.0408 
     41 CB        -73.1937   26.9832  -80.0588 C.3       6 UNK        -0.1791 
     42 N         -74.7342   27.7723  -78.3237 N.am      6 UNK        -0.4762 
     43 C         -75.1537   28.2815  -77.1552 C.2       6 UNK         0.5007 
     44 O         -74.4535   28.3342  -76.1437 O.2       6 UNK        -0.5032 
     45 CA        -76.6288   28.7309  -77.0925 C.3       5 UNK         0.0783 
     46 C46       -76.8382   30.1682  -77.6346 C.3       11 UNK        -0.0857 
     47 S47       -76.2446   31.4924  -76.5316 S.3       11 UNK        -0.2512 
     48 C48       -77.7475   31.9058  -75.5843 C.3       11 UNK         0.0225 
     49 N         -77.5155   27.7953  -77.7936 N.am      5 UNK        -0.4615 
     50 C         -77.6871   26.5043  -77.4908 C.2       4 UNK         0.5053 
     51 O         -77.1215   25.9285  -76.5577 O.2       4 UNK        -0.5105 
     52 CA        -78.5860   25.7152  -78.4450 C.3       4 UNK         0.0263 
     53 CB        -77.7866   25.2110  -79.6603 C.3       4 UNK        -0.1981 
     54 N         -79.1663   24.5844  -77.7324 N.am      4 UNK        -0.4224 
     55 C         -80.3668   24.0494  -77.9849 C.2       3 UNK         0.4895 
     56 O         -81.0963   24.4247  -78.9044 O.2       3 UNK        -0.5091 
     57 CA        -80.8527   22.8972  -77.0809 C.3       3 UNK         0.0250 
     58 CB        -80.8886   21.5773  -77.8707 C.3       3 UNK        -0.1996 
     59 N         -80.0767   22.6876  -75.8527 N.am      3 UNK        -0.4254 
     60 C         -79.9822   23.5523  -74.8339 C.2       2 UNK         0.5004 
     61 O         -80.4963   24.6727  -74.8398 O.2       2 UNK        -0.5226 
     62 CA        -79.1291   23.0815  -73.6401 C.3       2 UNK         0.0269 
     63 CB        -77.6437   23.0202  -74.0343 C.3       2 UNK        -0.1926 
     64 N         -79.2636   23.9404  -72.4616 N.am      2 UNK        -0.4687 
     65 C         -80.3778   24.1030  -71.7362 C.2       1 UNK         0.5165 
     66 O         -81.4212   23.4766  -71.9333 O.2       1 UNK        -0.5079 
     67 H67       -77.4970   22.5214  -68.1790 H         1 UNK         0.0900 
     68 H68       -77.1794   24.1026  -67.4606 H         1 UNK         0.0900 
     69 H69       -78.7695   23.3571  -67.2858 H         1 UNK         0.0900 
     70 H70       -80.2857   24.2374  -68.6450 H         1 UNK         0.2959 
     71 H71       -81.3358   25.2733  -70.2473 H         1 UNK         0.1079 
     72 H72       -79.5391   27.0610  -70.0226 H         1 UNK         0.0837 
     73 H73       -78.7210   26.3718  -71.3906 H         1 UNK         0.0837 
     74 H74       -79.1439   26.8602  -73.6701 H         1 UNK         0.0685 
     75 H75       -80.4108   27.8472  -74.3328 H         1 UNK         0.0685 
     76 H76       -79.3565   29.7010  -75.3333 H         1 UNK         0.1434 
     77 H77       -76.4776   32.0546  -73.2023 H         1 UNK         0.1329 
     78 H78       -78.0488   28.5069  -71.4206 H         1 UNK         0.1335 
     79 H79       -76.7660   30.0594  -70.0851 H         1 UNK         0.0680 
     80 H80       -76.2091   31.5783  -70.7304 H         1 UNK         0.0680 
     81 H81       -74.2320   32.0384  -71.8878 H         1 UNK         0.1032 
     82 H82       -72.7558   31.1707  -71.6151 H         1 UNK         0.1032 
     83 H83       -74.5929   30.8271  -74.0298 H         1 UNK         0.0461 
     84 H84       -71.7031   32.5992  -75.8667 H         1 UNK         0.3453 
     85 H85       -71.9915   30.8813  -75.7283 H         1 UNK         0.3453 
     86 H86       -73.6213   28.9863  -74.6025 H         1 UNK         0.2984 
     87 H87       -71.2468   27.7443  -75.1872 H         1 UNK         0.0554 
     88 H88       -69.4542   27.4815  -73.5341 H         1 UNK         0.0847 
     89 H89       -70.1961   25.9160  -73.8216 H         1 UNK         0.0847 
     90 H90       -70.5638   26.8149  -72.3491 H         1 UNK         0.0847 
     91 H91       -73.1353   26.6221  -75.1112 H         1 UNK         0.3141 
     92 H92       -74.9056   24.7457  -72.8298 H         1 UNK         0.0743 
     93 H93       -76.9334   26.0671  -73.4451 H         1 UNK         0.0784 
     94 H94       -75.9907   26.9026  -72.2241 H         1 UNK         0.0784 
     95 H95       -75.9237   27.4396  -73.8950 H         1 UNK         0.0784 
     96 H96       -75.4832   25.5986  -75.5164 H         1 UNK         0.3213 
     97 H97       -73.3273   23.2628  -77.1481 H         1 UNK         0.0855 
     98 H98       -76.3848   23.4445  -76.9744 H         1 UNK         0.0814 
     99 H99       -75.4208   22.0066  -76.6886 H         1 UNK         0.0814 
    100 H100      -75.4635   22.7196  -78.2912 H         1 UNK         0.0814 
    101 H101      -75.1362   25.3718  -77.9929 H         1 UNK         0.3105 
    102 H102      -72.6639   27.9092  -78.1989 H         1 UNK         0.0547 
    103 H103      -73.2673   27.9239  -80.6048 H         1 UNK         0.0837 
    104 H104      -72.2023   26.5734  -80.2575 H         1 UNK         0.0837 
    105 H105      -73.9224   26.2904  -80.4814 H         1 UNK         0.0837 
    106 H106      -75.3764   27.7658  -79.1028 H         1 UNK         0.3020 
    107 H107      -76.9109   28.7047  -76.0390 H         1 UNK         0.1245 
    108 H108      -77.8983   30.3456  -77.8218 H         1 UNK         0.0781 
    109 H109      -76.3533   30.2897  -78.6052 H         1 UNK         0.0781 
    110 H110      -78.6295   31.8778  -76.2257 H         1 UNK         0.0836 
    111 H111      -77.6660   32.9347  -75.2305 H         1 UNK         0.0836 
    112 H112      -78.0142   28.1715  -78.5872 H         1 UNK         0.3022 
    113 H113      -79.3849   26.3786  -78.7842 H         1 UNK         0.0747 
    114 H114      -76.9883   24.5295  -79.3660 H         1 UNK         0.0793 
    115 H115      -78.4310   24.6814  -80.3624 H         1 UNK         0.0793 
    116 H116      -77.3300   26.0376  -80.2059 H         1 UNK         0.0793 
    117 H117      -78.6510   24.2867  -76.9151 H         1 UNK         0.3047 
    118 H118      -81.8741   23.1436  -76.7830 H         1 UNK         0.0822 
    119 H119      -81.4948   21.6756  -78.7726 H         1 UNK         0.0807 
    120 H120      -81.3238   20.7709  -77.2800 H         1 UNK         0.0807 
    121 H121      -79.8904   21.2671  -78.1825 H         1 UNK         0.0807 
    122 H122      -79.6066   21.7970  -75.7743 H         1 UNK         0.2946 
    123 H123      -79.4643   22.0810  -73.3573 H         1 UNK         0.1144 
    124 H124      -77.0083   22.7813  -73.1809 H         1 UNK         0.0793 
    125 H125      -77.3071   23.9693  -74.4491 H         1 UNK         0.0793 
    126 H126      -77.4639   22.2552  -74.7901 H         1 UNK         0.0793 
    127 H127      -78.4333   24.4287  -72.1522 H         1 UNK         0.2896 
@<TRIPOS>BOND
     1    1    2 1    
     2    1   67 1    
     3    1   68 1    
     4    1   69 1    
     5    2    3 2    
     6    2    4 am   BACKBONE|DICT|INTERRES
     7    4    5 1    
     8    4   70 1    
     9    5    6 1    
    10    5   65 1    
    11    5   71 1    
    12    6    7 1    
    13    6   72 1    
    14    6   73 1    
    15    7    8 1    
    16    8    9 1    
    17    8   74 1    
    18    8   75 1    
    19    9   10 ar   
    20    9   14 ar   
    21   10   11 ar   
    22   10   76 1    
    23   11   12 ar   
    24   11   48 1    
    25   12   13 ar   
    26   12   77 1    
    27   13   14 ar   
    28   13   15 1    
    29   14   78 1    
    30   15   16 1    
    31   15   79 1    
    32   15   80 1    
    33   16   17 1    
    34   17   18 1    
    35   17   81 1    
    36   17   82 1    
    37   18   19 1    
    38   18   22 1    
    39   18   83 1    
    40   19   20 am   BACKBONE|DICT|INTERRES
    41   19   21 2    
    42   20   84 1    
    43   20   85 1    
    44   22   23 am   BACKBONE|DICT|INTERRES
    45   22   86 1    
    46   23   24 2    
    47   23   25 1    
    48   25   26 1    
    49   25   27 1    
    50   25   87 1    
    51   26   88 1    
    52   26   89 1    
    53   26   90 1    
    54   27   28 am   BACKBONE|DICT|INTERRES
    55   27   91 1    
    56   28   29 2    
    57   28   30 1    
    58   30   31 1    
    59   30   32 1    
    60   30   92 1    
    61   31   93 1    
    62   31   94 1    
    63   31   95 1    
    64   32   33 am   BACKBONE|DICT|INTERRES
    65   32   96 1    
    66   33   34 2    
    67   33   35 1    
    68   35   36 1    
    69   35   37 1    
    70   35   97 1    
    71   36   98 1    
    72   36   99 1    
    73   36  100 1    
    74   37   38 am   BACKBONE|DICT|INTERRES
    75   37  101 1    
    76   38   39 2    
    77   38   40 1    
    78   40   41 1    
    79   40   42 1    
    80   40  102 1    
    81   41  103 1    
    82   41  104 1    
    83   41  105 1    
    84   42   43 am   BACKBONE|DICT|INTERRES
    85   42  106 1    
    86   43   44 2    
    87   43   45 1    
    88   45   46 1    
    89   45   49 1    
    90   45  107 1    
    91   46   47 1    
    92   46  108 1    
    93   46  109 1    
    94   47   48 1    
    95   48  110 1    
    96   48  111 1    
    97   49   50 am   BACKBONE|DICT|INTERRES
    98   49  112 1    
    99   50   51 2    
   100   50   52 1    
   101   52   53 1    
   102   52   54 1    
   103   52  113 1    
   104   53  114 1    
   105   53  115 1    
   106   53  116 1    
   107   54   55 am   BACKBONE|DICT|INTERRES
   108   54  117 1    
   109   55   56 2    
   110   55   57 1    
   111   57   58 1    
   112   57   59 1    
   113   57  118 1    
   114   58  119 1    
   115   58  120 1    
   116   58  121 1    
   117   59   60 am   BACKBONE|DICT|INTERRES
   118   59  122 1    
   119   60   61 2    
   120   60   62 1    
   121   62   63 1    
   122   62   64 1    
   123   62  123 1    
   124   63  124 1    
   125   63  125 1    
   126   63  126 1    
   127   64   65 am   BACKBONE|DICT|INTERRES
   128   64  127 1    
   129   65   66 2    
@<TRIPOS>SUBSTRUCTURE
     1 UNK         1 GROUP             0       ****    0 ROOT    
