@<TRIPOS>MOLECULE
3R135
127   129    1
SMALL
USER_CHARGES


@<TRIPOS>ATOM
      1 CA        -84.5141   25.8277  -71.6712 C.3       0 UNK        -0.1998 
      2 C         -83.1912   26.3858  -71.1529 C.2       0 UNK         0.4909 
      3 O         -82.8526   26.1540  -69.9942 O.2       0 UNK        -0.5240 
      4 N         -82.4096   27.1258  -71.9534 N.am      1 UNK        -0.4739 
      5 CA        -82.6439   27.4772  -73.3644 C.3       1 UNK         0.0864 
      6 C6        -81.7003   28.6058  -73.8531 C.3       11 UNK        -0.0881 
      7 S7        -81.7393   30.0857  -72.7876 S.3       11 UNK        -0.2682 
      8 C8        -80.1427   30.8650  -73.2165 C.3       11 UNK         0.0289 
      9 C9        -78.8764   30.1766  -72.6947 C.ar      11 UNK        -0.0687 
     10 C10       -78.8926   29.0215  -71.8992 C.ar      11 UNK        -0.0823 
     11 C11       -77.7041   28.4420  -71.4449 C.ar      11 UNK        -0.0830 
     12 C12       -76.4850   29.0402  -71.7775 C.ar      11 UNK        -0.1021 
     13 C13       -76.4440   30.1896  -72.5721 C.ar      11 UNK        -0.0753 
     14 C14       -77.6438   30.7497  -73.0208 C.ar      11 UNK        -0.0933 
     15 C15       -75.1102   30.8453  -72.9132 C.3       11 UNK         0.0166 
     16 S16       -74.8883   31.0549  -74.7084 S.3       11 UNK        -0.2615 
     17 C17       -73.1799   31.6886  -74.8087 C.3       11 UNK        -0.0865 
     18 CA        -72.2015   30.6571  -75.4460 C.3       10 UNK         0.0862 
     19 C         -70.8233   31.2811  -75.8284 C.2       10 UNK         0.5551 
     20 N         -69.7311   30.5261  -75.8118 N.am      10 UNK        -0.7319 
     21 O         -70.7418   32.4569  -76.1763 O.2       10 UNK        -0.5018 
     22 N         -72.1168   29.3968  -74.6834 N.am      10 UNK        -0.4509 
     23 C         -71.6182   29.2604  -73.4465 C.2       10 UNK         0.4899 
     24 O         -71.1706   30.1952  -72.7816 O.2       10 UNK        -0.4839 
     25 CA        -71.6065   27.8531  -72.8302 C.3       9 UNK         0.0222 
     26 CB        -72.6237   27.7497  -71.6841 C.3       9 UNK        -0.1966 
     27 N         -71.8760   26.7906  -73.8028 N.am      9 UNK        -0.4218 
     28 C         -70.9198   26.1259  -74.4638 C.2       9 UNK         0.5020 
     29 O         -69.7213   26.4049  -74.3993 O.2       9 UNK        -0.5274 
     30 CA        -71.3618   24.9228  -75.3090 C.3       8 UNK         0.0270 
     31 CB        -71.6914   23.7247  -74.4032 C.3       8 UNK        -0.1976 
     32 N         -72.4943   25.2045  -76.1938 N.am      8 UNK        -0.4313 
     33 C         -72.4019   25.9351  -77.3142 C.2       8 UNK         0.5041 
     34 O         -71.3791   26.5255  -77.6641 O.2       8 UNK        -0.5577 
     35 CA        -73.6444   25.9928  -78.2180 C.3       7 UNK         0.0284 
     36 CB        -73.8539   24.6533  -78.9437 C.3       7 UNK        -0.1958 
     37 N         -74.8567   26.3556  -77.4862 N.am      7 UNK        -0.4454 
     38 C         -75.1054   27.5792  -77.0006 C.2       7 UNK         0.5089 
     39 O         -74.3700   28.5468  -77.1902 O.2       7 UNK        -0.5125 
     40 CA        -76.3728   27.7486  -76.1406 C.3       6 UNK         0.0408 
     41 CB        -77.6011   28.0314  -77.0179 C.3       6 UNK        -0.1791 
     42 N         -76.6459   26.6022  -75.2725 N.am      6 UNK        -0.4762 
     43 C         -75.8093   26.1460  -74.3280 C.2       6 UNK         0.5007 
     44 O         -74.7009   26.6267  -74.0894 O.2       6 UNK        -0.5032 
     45 CA        -76.2595   24.8809  -73.5794 C.3       5 UNK         0.0783 
     46 C46       -77.3292   25.1930  -72.5019 C.3       11 UNK        -0.0857 
     47 S47       -76.5798   25.8942  -70.9932 S.3       11 UNK        -0.2512 
     48 C48       -77.7562   27.2140  -70.5378 C.3       11 UNK         0.0225 
     49 N         -76.6969   23.8477  -74.5234 N.am      5 UNK        -0.4615 
     50 C         -75.8845   23.2288  -75.3938 C.2       4 UNK         0.5053 
     51 O         -74.6752   23.4394  -75.4707 O.2       4 UNK        -0.5105 
     52 CA        -76.5337   22.2403  -76.3757 C.3       4 UNK         0.0263 
     53 CB        -76.7416   20.8714  -75.7088 C.3       4 UNK        -0.1981 
     54 N         -77.8065   22.7279  -76.9087 N.am      4 UNK        -0.4224 
     55 C         -77.9419   23.8226  -77.6719 C.2       3 UNK         0.4895 
     56 O         -76.9991   24.5091  -78.0612 O.2       3 UNK        -0.5091 
     57 CA        -79.3767   24.2529  -78.0169 C.3       3 UNK         0.0250 
     58 CB        -79.8515   23.5657  -79.3069 C.3       3 UNK        -0.1996 
     59 N         -80.3359   23.9953  -76.9373 N.am      3 UNK        -0.4254 
     60 C         -80.2654   24.5376  -75.7140 C.2       2 UNK         0.5004 
     61 O         -79.3644   25.2979  -75.3458 O.2       2 UNK        -0.5226 
     62 CA        -81.3506   24.1136  -74.7139 C.3       2 UNK         0.0269 
     63 CB        -80.8325   22.9844  -73.8085 C.3       2 UNK        -0.1926 
     64 N         -81.7441   25.2495  -73.8844 N.am      2 UNK        -0.4687 
     65 C         -82.5031   26.2681  -74.3111 C.2       1 UNK         0.5165 
     66 O         -83.0724   26.2843  -75.4031 O.2       1 UNK        -0.5079 
     67 H67       -85.1067   26.5946  -72.1678 H         1 UNK         0.0900 
     68 H68       -85.1109   25.4418  -70.8450 H         1 UNK         0.0900 
     69 H69       -84.3428   25.0061  -72.3657 H         1 UNK         0.0900 
     70 H70       -81.5685   27.5146  -71.5565 H         1 UNK         0.2959 
     71 H71       -83.6674   27.8445  -73.4588 H         1 UNK         0.1079 
     72 H72       -80.6734   28.2411  -73.9246 H         1 UNK         0.0837 
     73 H73       -81.9752   28.9191  -74.8627 H         1 UNK         0.0837 
     74 H74       -80.0799   30.9500  -74.3025 H         1 UNK         0.0685 
     75 H75       -80.1594   31.8851  -72.8301 H         1 UNK         0.0685 
     76 H76       -79.8294   28.5729  -71.6101 H         1 UNK         0.1434 
     77 H77       -75.5692   28.6136  -71.3991 H         1 UNK         0.1329 
     78 H78       -77.6152   31.6452  -73.6270 H         1 UNK         0.1335 
     79 H79       -75.0571   31.8204  -72.4274 H         1 UNK         0.0680 
     80 H80       -74.2821   30.2543  -72.5212 H         1 UNK         0.0680 
     81 H81       -72.8316   32.0020  -73.8237 H         1 UNK         0.1032 
     82 H82       -73.2201   32.5978  -75.4109 H         1 UNK         0.1032 
     83 H83       -72.6268   30.3753  -76.4088 H         1 UNK         0.0461 
     84 H84       -69.7870   29.5567  -75.5419 H         1 UNK         0.3453 
     85 H85       -68.8449   30.9307  -76.0699 H         1 UNK         0.3453 
     86 H86       -72.4739   28.5783  -75.1550 H         1 UNK         0.2984 
     87 H87       -70.6152   27.7066  -72.3958 H         1 UNK         0.0554 
     88 H88       -72.5452   26.7924  -71.1687 H         1 UNK         0.0847 
     89 H89       -72.4675   28.5331  -70.9413 H         1 UNK         0.0847 
     90 H90       -73.6418   27.8446  -72.0536 H         1 UNK         0.0847 
     91 H91       -72.8554   26.5457  -73.9455 H         1 UNK         0.3141 
     92 H92       -70.5144   24.6357  -75.9357 H         1 UNK         0.0743 
     93 H93       -72.5496   23.9266  -73.7608 H         1 UNK         0.0784 
     94 H94       -71.9170   22.8345  -74.9908 H         1 UNK         0.0784 
     95 H95       -70.8486   23.4800  -73.7553 H         1 UNK         0.0784 
     96 H96       -73.3677   24.7271  -75.9799 H         1 UNK         0.3213 
     97 H97       -73.4665   26.7585  -78.9765 H         1 UNK         0.0855 
     98 H98       -74.0864   23.8461  -78.2484 H         1 UNK         0.0814 
     99 H99       -72.9588   24.3631  -79.4955 H         1 UNK         0.0814 
    100 H100      -74.6708   24.7178  -79.6627 H         1 UNK         0.0814 
    101 H101      -75.5591   25.6309  -77.3673 H         1 UNK         0.3105 
    102 H102      -76.2196   28.6087  -75.4881 H         1 UNK         0.0547 
    103 H103      -77.4432   28.9194  -77.6313 H         1 UNK         0.0837 
    104 H104      -77.8138   27.2016  -77.6920 H         1 UNK         0.0837 
    105 H105      -78.4895   28.2088  -76.4113 H         1 UNK         0.0837 
    106 H106      -77.5394   26.1332  -75.3946 H         1 UNK         0.3020 
    107 H107      -75.3768   24.4796  -73.0749 H         1 UNK         0.1245 
    108 H108      -77.8365   24.2752  -72.2017 H         1 UNK         0.0781 
    109 H109      -78.1083   25.8540  -72.8877 H         1 UNK         0.0781 
    110 H110      -77.5340   27.5349  -69.5193 H         1 UNK         0.0836 
    111 H111      -78.7611   26.7896  -70.5098 H         1 UNK         0.0836 
    112 H112      -77.6899   23.6772  -74.5773 H         1 UNK         0.3022 
    113 H113      -75.8480   22.1107  -77.2159 H         1 UNK         0.0747 
    114 H114      -77.1220   20.1377  -76.4197 H         1 UNK         0.0793 
    115 H115      -75.8001   20.4826  -75.3178 H         1 UNK         0.0793 
    116 H116      -77.4426   20.9269  -74.8749 H         1 UNK         0.0793 
    117 H117      -78.6389   22.2205  -76.6478 H         1 UNK         0.3047 
    118 H118      -79.3607   25.3307  -78.1910 H         1 UNK         0.0822 
    119 H119      -80.8303   23.9332  -79.6157 H         1 UNK         0.0807 
    120 H120      -79.9197   22.4834  -79.1894 H         1 UNK         0.0807 
    121 H121      -79.1610   23.7612  -80.1288 H         1 UNK         0.0807 
    122 H122      -81.1037   23.3759  -77.1553 H         1 UNK         0.2946 
    123 H123      -82.2271   23.7563  -75.2600 H         1 UNK         0.1144 
    124 H124      -81.5981   22.6616  -73.1025 H         1 UNK         0.0793 
    125 H125      -79.9583   23.2931  -73.2342 H         1 UNK         0.0793 
    126 H126      -80.5468   22.1101  -74.3949 H         1 UNK         0.0793 
    127 H127      -81.2920   25.3367  -72.9860 H         1 UNK         0.2896 
@<TRIPOS>BOND
     1    1    2 1    
     2    1   67 1    
     3    1   68 1    
     4    1   69 1    
     5    2    3 2    
     6    2    4 am   BACKBONE|DICT|INTERRES
     7    4    5 1    
     8    4   70 1    
     9    5    6 1    
    10    5   65 1    
    11    5   71 1    
    12    6    7 1    
    13    6   72 1    
    14    6   73 1    
    15    7    8 1    
    16    8    9 1    
    17    8   74 1    
    18    8   75 1    
    19    9   10 ar   
    20    9   14 ar   
    21   10   11 ar   
    22   10   76 1    
    23   11   12 ar   
    24   11   48 1    
    25   12   13 ar   
    26   12   77 1    
    27   13   14 ar   
    28   13   15 1    
    29   14   78 1    
    30   15   16 1    
    31   15   79 1    
    32   15   80 1    
    33   16   17 1    
    34   17   18 1    
    35   17   81 1    
    36   17   82 1    
    37   18   19 1    
    38   18   22 1    
    39   18   83 1    
    40   19   20 am   BACKBONE|DICT|INTERRES
    41   19   21 2    
    42   20   84 1    
    43   20   85 1    
    44   22   23 am   BACKBONE|DICT|INTERRES
    45   22   86 1    
    46   23   24 2    
    47   23   25 1    
    48   25   26 1    
    49   25   27 1    
    50   25   87 1    
    51   26   88 1    
    52   26   89 1    
    53   26   90 1    
    54   27   28 am   BACKBONE|DICT|INTERRES
    55   27   91 1    
    56   28   29 2    
    57   28   30 1    
    58   30   31 1    
    59   30   32 1    
    60   30   92 1    
    61   31   93 1    
    62   31   94 1    
    63   31   95 1    
    64   32   33 am   BACKBONE|DICT|INTERRES
    65   32   96 1    
    66   33   34 2    
    67   33   35 1    
    68   35   36 1    
    69   35   37 1    
    70   35   97 1    
    71   36   98 1    
    72   36   99 1    
    73   36  100 1    
    74   37   38 am   BACKBONE|DICT|INTERRES
    75   37  101 1    
    76   38   39 2    
    77   38   40 1    
    78   40   41 1    
    79   40   42 1    
    80   40  102 1    
    81   41  103 1    
    82   41  104 1    
    83   41  105 1    
    84   42   43 am   BACKBONE|DICT|INTERRES
    85   42  106 1    
    86   43   44 2    
    87   43   45 1    
    88   45   46 1    
    89   45   49 1    
    90   45  107 1    
    91   46   47 1    
    92   46  108 1    
    93   46  109 1    
    94   47   48 1    
    95   48  110 1    
    96   48  111 1    
    97   49   50 am   BACKBONE|DICT|INTERRES
    98   49  112 1    
    99   50   51 2    
   100   50   52 1    
   101   52   53 1    
   102   52   54 1    
   103   52  113 1    
   104   53  114 1    
   105   53  115 1    
   106   53  116 1    
   107   54   55 am   BACKBONE|DICT|INTERRES
   108   54  117 1    
   109   55   56 2    
   110   55   57 1    
   111   57   58 1    
   112   57   59 1    
   113   57  118 1    
   114   58  119 1    
   115   58  120 1    
   116   58  121 1    
   117   59   60 am   BACKBONE|DICT|INTERRES
   118   59  122 1    
   119   60   61 2    
   120   60   62 1    
   121   62   63 1    
   122   62   64 1    
   123   62  123 1    
   124   63  124 1    
   125   63  125 1    
   126   63  126 1    
   127   64   65 am   BACKBONE|DICT|INTERRES
   128   64  127 1    
   129   65   66 2    
@<TRIPOS>SUBSTRUCTURE
     1 UNK         1 GROUP             0       ****    0 ROOT    
