@<TRIPOS>MOLECULE
3R135
127   129    1
SMALL
USER_CHARGES


@<TRIPOS>ATOM
      1 CA        -83.5560   28.5789  -75.4943 C.3       0 UNK        -0.1998 
      2 C         -82.1342   28.6468  -74.9584 C.2       0 UNK         0.4909 
      3 O         -81.3367   29.4561  -75.4341 O.2       0 UNK        -0.5240 
      4 N         -81.8043   27.7983  -73.9763 N.am      1 UNK        -0.4739 
      5 CA        -80.4821   27.7000  -73.3491 C.3       1 UNK         0.0864 
      6 C6        -80.5680   27.0604  -71.9395 C.3       11 UNK        -0.0881 
      7 S7        -81.0664   28.2497  -70.6421 S.3       11 UNK        -0.2682 
      8 C8        -79.7042   29.4806  -70.5586 C.3       11 UNK         0.0289 
      9 C9        -78.3422   28.9481  -70.9931 C.ar      11 UNK        -0.0687 
     10 C10       -77.7624   27.8648  -70.3261 C.ar      11 UNK        -0.0823 
     11 C11       -76.5821   27.2915  -70.8043 C.ar      11 UNK        -0.0830 
     12 C12       -75.9374   27.8576  -71.9054 C.ar      11 UNK        -0.1021 
     13 C13       -76.4823   28.9643  -72.5578 C.ar      11 UNK        -0.0753 
     14 C14       -77.6871   29.5053  -72.0981 C.ar      11 UNK        -0.0933 
     15 C15       -75.8073   29.5103  -73.8077 C.3       11 UNK         0.0166 
     16 S16       -75.3558   31.2671  -73.6779 S.3       11 UNK        -0.2615 
     17 C17       -74.0695   31.2957  -72.3752 C.3       11 UNK        -0.0865 
     18 CA        -72.7432   30.5097  -72.6390 C.3       10 UNK         0.0862 
     19 C         -72.6324   29.1920  -71.8225 C.2       10 UNK         0.5551 
     20 N         -72.4159   28.0319  -72.4269 N.am      10 UNK        -0.7319 
     21 O         -72.7002   29.2298  -70.5964 O.2       10 UNK        -0.5018 
     22 N         -72.3625   30.4024  -74.0590 N.am      10 UNK        -0.4509 
     23 C         -71.7970   31.3881  -74.7703 C.2       10 UNK         0.4899 
     24 O         -71.5359   32.4990  -74.3061 O.2       10 UNK        -0.4839 
     25 CA        -71.4365   31.1069  -76.2438 C.3       9 UNK         0.0222 
     26 CB        -69.9287   30.8391  -76.3815 C.3       9 UNK        -0.1966 
     27 N         -72.1726   29.9833  -76.8242 N.am      9 UNK        -0.4218 
     28 C         -73.4728   29.9955  -77.1448 C.2       9 UNK         0.5020 
     29 O         -74.1675   31.0117  -77.1220 O.2       9 UNK        -0.5274 
     30 CA        -74.1238   28.6584  -77.5605 C.3       8 UNK         0.0270 
     31 CB        -74.5149   28.6938  -79.0476 C.3       8 UNK        -0.1976 
     32 N         -73.3449   27.4360  -77.3132 N.am      8 UNK        -0.4313 
     33 C         -72.8456   27.0212  -76.1428 C.2       8 UNK         0.5041 
     34 O         -72.8945   27.6874  -75.1081 O.2       8 UNK        -0.5577 
     35 CA        -72.1854   25.6316  -76.1342 C.3       7 UNK         0.0284 
     36 CB        -71.3100   25.4118  -74.8867 C.3       7 UNK        -0.1958 
     37 N         -73.1930   24.5741  -76.1918 N.am      7 UNK        -0.4454 
     38 C         -73.9145   24.2225  -77.2618 C.2       7 UNK         0.5089 
     39 O         -73.7602   24.7279  -78.3751 O.2       7 UNK        -0.5125 
     40 CA        -74.9983   23.1447  -77.0635 C.3       6 UNK         0.0408 
     41 CB        -74.4176   21.7301  -77.2540 C.3       6 UNK        -0.1791 
     42 N         -75.7603   23.2601  -75.8067 N.am      6 UNK        -0.4762 
     43 C         -75.3406   23.0571  -74.5473 C.2       6 UNK         0.5007 
     44 O         -74.1837   22.7417  -74.2665 O.2       6 UNK        -0.5032 
     45 CA        -76.3438   23.2657  -73.3945 C.3       5 UNK         0.0783 
     46 C46       -75.9941   24.5380  -72.5866 C.3       11 UNK        -0.0857 
     47 S47       -76.8122   24.5525  -70.9552 S.3       11 UNK        -0.2512 
     48 C48       -76.0457   26.0146  -70.1811 C.3       11 UNK         0.0225 
     49 N         -77.7426   23.2783  -73.8383 N.am      5 UNK        -0.4615 
     50 C         -78.4614   22.1761  -74.0869 C.2       4 UNK         0.5053 
     51 O         -78.0012   21.0349  -74.0478 O.2       4 UNK        -0.5105 
     52 CA        -79.9443   22.3790  -74.4234 C.3       4 UNK         0.0263 
     53 CB        -80.7377   22.7702  -73.1644 C.3       4 UNK        -0.1981 
     54 N         -80.1165   23.4087  -75.4474 N.am      4 UNK        -0.4224 
     55 C         -80.2755   23.1625  -76.7557 C.2       3 UNK         0.4895 
     56 O         -80.3130   22.0306  -77.2396 O.2       3 UNK        -0.5091 
     57 CA        -80.4374   24.3744  -77.6945 C.3       3 UNK         0.0250 
     58 CB        -81.9249   24.6230  -77.9941 C.3       3 UNK        -0.1996 
     59 N         -79.8448   25.6095  -77.1773 N.am      3 UNK        -0.4254 
     60 C         -78.5311   25.8182  -77.0179 C.2       2 UNK         0.5004 
     61 O         -77.6662   25.0042  -77.3323 O.2       2 UNK        -0.5226 
     62 CA        -78.1147   27.1382  -76.3484 C.3       2 UNK         0.0269 
     63 CB        -77.9003   28.2274  -77.4106 C.3       2 UNK        -0.1926 
     64 N         -79.0702   27.6272  -75.3486 N.am      2 UNK        -0.4687 
     65 C         -79.4907   26.9562  -74.2677 C.2       1 UNK         0.5165 
     66 O         -79.1596   25.7940  -74.0200 O.2       1 UNK        -0.5079 
     67 H67       -84.1493   27.8214  -74.9826 H         1 UNK         0.0900 
     68 H68       -83.5450   28.3407  -76.5575 H         1 UNK         0.0900 
     69 H69       -84.0508   29.5412  -75.3655 H         1 UNK         0.0900 
     70 H70       -82.4992   27.1530  -73.6284 H         1 UNK         0.2959 
     71 H71       -80.0883   28.7113  -73.2428 H         1 UNK         0.1079 
     72 H72       -81.2785   26.2321  -71.9407 H         1 UNK         0.0837 
     73 H73       -79.6249   26.6051  -71.6377 H         1 UNK         0.0837 
     74 H74       -79.9867   30.3389  -71.1701 H         1 UNK         0.0685 
     75 H75       -79.6302   29.8523  -69.5358 H         1 UNK         0.0685 
     76 H76       -78.2755   27.4182  -69.4851 H         1 UNK         0.1434 
     77 H77       -75.0324   27.4037  -72.2828 H         1 UNK         0.1329 
     78 H78       -78.1262   30.3423  -72.6237 H         1 UNK         0.1335 
     79 H79       -74.9181   28.9328  -74.0570 H         1 UNK         0.0680 
     80 H80       -76.4893   29.3912  -74.6500 H         1 UNK         0.0680 
     81 H81       -74.5331   31.0016  -71.4313 H         1 UNK         0.1032 
     82 H82       -73.8147   32.3474  -72.2374 H         1 UNK         0.1032 
     83 H83       -71.9530   31.1061  -72.1775 H         1 UNK         0.0461 
     84 H84       -72.3078   27.2083  -71.8591 H         1 UNK         0.3453 
     85 H85       -72.4516   27.9397  -73.4404 H         1 UNK         0.3453 
     86 H86       -72.5504   29.5093  -74.5040 H         1 UNK         0.2984 
     87 H87       -71.6769   32.0046  -76.8173 H         1 UNK         0.0554 
     88 H88       -69.6410   30.7081  -77.4249 H         1 UNK         0.0847 
     89 H89       -69.6245   29.9466  -75.8328 H         1 UNK         0.0847 
     90 H90       -69.3467   31.6749  -75.9903 H         1 UNK         0.0847 
     91 H91       -71.6923   29.0967  -76.8646 H         1 UNK         0.3141 
     92 H92       -75.0345   28.5677  -76.9669 H         1 UNK         0.0743 
     93 H93       -75.1705   29.5393  -79.2617 H         1 UNK         0.0784 
     94 H94       -73.6385   28.7896  -79.6899 H         1 UNK         0.0784 
     95 H95       -75.0483   27.7900  -79.3431 H         1 UNK         0.0784 
     96 H96       -73.3038   26.7714  -78.0789 H         1 UNK         0.3213 
     97 H97       -71.5432   25.5579  -77.0145 H         1 UNK         0.0855 
     98 H98       -70.5541   26.1930  -74.7955 H         1 UNK         0.0814 
     99 H99       -70.7851   24.4577  -74.9348 H         1 UNK         0.0814 
    100 H100      -71.9016   25.4209  -73.9703 H         1 UNK         0.0814 
    101 H101      -73.3877   24.0732  -75.3291 H         1 UNK         0.3105 
    102 H102      -75.7284   23.2950  -77.8597 H         1 UNK         0.0547 
    103 H103      -73.9685   21.6271  -78.2426 H         1 UNK         0.0837 
    104 H104      -73.6410   21.5010  -76.5241 H         1 UNK         0.0837 
    105 H105      -75.1931   20.9689  -77.1699 H         1 UNK         0.0837 
    106 H106      -76.7098   23.5909  -75.9350 H         1 UNK         0.3020 
    107 H107      -76.2054   22.4064  -72.7335 H         1 UNK         0.1245 
    108 H108      -76.2836   25.4284  -73.1470 H         1 UNK         0.0781 
    109 H109      -74.9183   24.6137  -72.4135 H         1 UNK         0.0781 
    110 H110      -74.9599   25.9635  -70.2763 H         1 UNK         0.0836 
    111 H111      -76.2600   26.0046  -69.1114 H         1 UNK         0.0836 
    112 H112      -78.2026   24.1854  -73.8611 H         1 UNK         0.3022 
    113 H113      -80.3403   21.4259  -74.7812 H         1 UNK         0.0747 
    114 H114      -81.8009   22.8696  -73.3831 H         1 UNK         0.0793 
    115 H115      -80.6362   22.0097  -72.3890 H         1 UNK         0.0793 
    116 H116      -80.3948   23.7145  -72.7396 H         1 UNK         0.0793 
    117 H117      -80.0304   24.3694  -75.1347 H         1 UNK         0.3047 
    118 H118      -79.9342   24.1281  -78.6321 H         1 UNK         0.0822 
    119 H119      -82.0554   25.4232  -78.7230 H         1 UNK         0.0807 
    120 H120      -82.4793   24.8927  -77.0943 H         1 UNK         0.0807 
    121 H121      -82.3938   23.7299  -78.4100 H         1 UNK         0.0807 
    122 H122      -80.4803   26.3393  -76.8901 H         1 UNK         0.2946 
    123 H123      -77.1663   26.9549  -75.8382 H         1 UNK         0.1144 
    124 H124      -77.4782   29.1334  -76.9757 H         1 UNK         0.0793 
    125 H125      -78.8346   28.4981  -77.9040 H         1 UNK         0.0793 
    126 H126      -77.2132   27.8868  -78.1854 H         1 UNK         0.0793 
    127 H127      -79.4800   28.5409  -75.5139 H         1 UNK         0.2896 
@<TRIPOS>BOND
     1    1    2 1    
     2    1   67 1    
     3    1   68 1    
     4    1   69 1    
     5    2    3 2    
     6    2    4 am   BACKBONE|DICT|INTERRES
     7    4    5 1    
     8    4   70 1    
     9    5    6 1    
    10    5   65 1    
    11    5   71 1    
    12    6    7 1    
    13    6   72 1    
    14    6   73 1    
    15    7    8 1    
    16    8    9 1    
    17    8   74 1    
    18    8   75 1    
    19    9   10 ar   
    20    9   14 ar   
    21   10   11 ar   
    22   10   76 1    
    23   11   12 ar   
    24   11   48 1    
    25   12   13 ar   
    26   12   77 1    
    27   13   14 ar   
    28   13   15 1    
    29   14   78 1    
    30   15   16 1    
    31   15   79 1    
    32   15   80 1    
    33   16   17 1    
    34   17   18 1    
    35   17   81 1    
    36   17   82 1    
    37   18   19 1    
    38   18   22 1    
    39   18   83 1    
    40   19   20 am   BACKBONE|DICT|INTERRES
    41   19   21 2    
    42   20   84 1    
    43   20   85 1    
    44   22   23 am   BACKBONE|DICT|INTERRES
    45   22   86 1    
    46   23   24 2    
    47   23   25 1    
    48   25   26 1    
    49   25   27 1    
    50   25   87 1    
    51   26   88 1    
    52   26   89 1    
    53   26   90 1    
    54   27   28 am   BACKBONE|DICT|INTERRES
    55   27   91 1    
    56   28   29 2    
    57   28   30 1    
    58   30   31 1    
    59   30   32 1    
    60   30   92 1    
    61   31   93 1    
    62   31   94 1    
    63   31   95 1    
    64   32   33 am   BACKBONE|DICT|INTERRES
    65   32   96 1    
    66   33   34 2    
    67   33   35 1    
    68   35   36 1    
    69   35   37 1    
    70   35   97 1    
    71   36   98 1    
    72   36   99 1    
    73   36  100 1    
    74   37   38 am   BACKBONE|DICT|INTERRES
    75   37  101 1    
    76   38   39 2    
    77   38   40 1    
    78   40   41 1    
    79   40   42 1    
    80   40  102 1    
    81   41  103 1    
    82   41  104 1    
    83   41  105 1    
    84   42   43 am   BACKBONE|DICT|INTERRES
    85   42  106 1    
    86   43   44 2    
    87   43   45 1    
    88   45   46 1    
    89   45   49 1    
    90   45  107 1    
    91   46   47 1    
    92   46  108 1    
    93   46  109 1    
    94   47   48 1    
    95   48  110 1    
    96   48  111 1    
    97   49   50 am   BACKBONE|DICT|INTERRES
    98   49  112 1    
    99   50   51 2    
   100   50   52 1    
   101   52   53 1    
   102   52   54 1    
   103   52  113 1    
   104   53  114 1    
   105   53  115 1    
   106   53  116 1    
   107   54   55 am   BACKBONE|DICT|INTERRES
   108   54  117 1    
   109   55   56 2    
   110   55   57 1    
   111   57   58 1    
   112   57   59 1    
   113   57  118 1    
   114   58  119 1    
   115   58  120 1    
   116   58  121 1    
   117   59   60 am   BACKBONE|DICT|INTERRES
   118   59  122 1    
   119   60   61 2    
   120   60   62 1    
   121   62   63 1    
   122   62   64 1    
   123   62  123 1    
   124   63  124 1    
   125   63  125 1    
   126   63  126 1    
   127   64   65 am   BACKBONE|DICT|INTERRES
   128   64  127 1    
   129   65   66 2    
@<TRIPOS>SUBSTRUCTURE
     1 UNK         1 GROUP             0       ****    0 ROOT    
