@<TRIPOS>MOLECULE
3R135
127   129    1
SMALL
USER_CHARGES


@<TRIPOS>ATOM
      1 CA        -72.5167   23.9873  -73.0185 C.3       0 UNK        -0.1998 
      2 C         -73.9158   23.8440  -72.4370 C.2       0 UNK         0.4909 
      3 O         -74.0944   23.1657  -71.4254 O.2       0 UNK        -0.5240 
      4 N         -74.9059   24.4774  -73.0737 N.am      1 UNK        -0.4739 
      5 CA        -76.3283   24.3564  -72.7546 C.3       1 UNK         0.0864 
      6 C6        -77.0696   25.6766  -73.0766 C.3       11 UNK        -0.0881 
      7 S7        -78.7484   25.7708  -72.3720 S.3       11 UNK        -0.2682 
      8 C8        -78.5277   27.0213  -71.0619 C.3       11 UNK         0.0289 
      9 C9        -78.1571   28.3939  -71.6136 C.ar      11 UNK        -0.0687 
     10 C10       -78.9857   29.0229  -72.5479 C.ar      11 UNK        -0.0823 
     11 C11       -78.6476   30.2751  -73.0655 C.ar      11 UNK        -0.0830 
     12 C12       -77.4881   30.9141  -72.6192 C.ar      11 UNK        -0.1021 
     13 C13       -76.6502   30.3027  -71.6814 C.ar      11 UNK        -0.0753 
     14 C14       -76.9911   29.0394  -71.1839 C.ar      11 UNK        -0.0933 
     15 C15       -75.3930   31.0152  -71.1903 C.3       11 UNK         0.0166 
     16 S16       -74.3328   31.5810  -72.5610 S.3       11 UNK        -0.2615 
     17 C17       -72.9780   32.3975  -71.6525 C.3       11 UNK        -0.0865 
     18 CA        -71.6534   32.4321  -72.4713 C.3       10 UNK         0.0862 
     19 C         -70.5553   33.3166  -71.8032 C.2       10 UNK         0.5551 
     20 N         -69.2739   33.0109  -71.9669 N.am      10 UNK        -0.7319 
     21 O         -70.8629   34.3135  -71.1538 O.2       10 UNK        -0.5018 
     22 N         -71.2012   31.0917  -72.8931 N.am      10 UNK        -0.4509 
     23 C         -70.8140   30.0977  -72.0845 C.2       10 UNK         0.4899 
     24 O         -70.7665   30.1815  -70.8563 O.2       10 UNK        -0.4839 
     25 CA        -70.4641   28.7724  -72.7783 C.3       9 UNK         0.0222 
     26 CB        -69.6922   27.8076  -71.8582 C.3       9 UNK        -0.1966 
     27 N         -71.6968   28.1235  -73.2199 N.am      9 UNK        -0.4218 
     28 C         -72.2565   28.2701  -74.4260 C.2       9 UNK         0.5020 
     29 O         -71.7780   28.9481  -75.3392 O.2       9 UNK        -0.5274 
     30 CA        -73.5908   27.5514  -74.6340 C.3       8 UNK         0.0270 
     31 CB        -74.7707   28.4314  -74.1883 C.3       8 UNK        -0.1976 
     32 N         -73.7462   27.2023  -76.0420 N.am      8 UNK        -0.4313 
     33 C         -74.4853   26.1827  -76.4840 C.2       8 UNK         0.5041 
     34 O         -75.0614   25.3810  -75.7428 O.2       8 UNK        -0.5577 
     35 CA        -74.6332   26.0206  -77.9959 C.3       7 UNK         0.0284 
     36 CB        -73.7371   24.8873  -78.5255 C.3       7 UNK        -0.1958 
     37 N         -76.0398   25.7218  -78.2324 N.am      7 UNK        -0.4454 
     38 C         -76.7147   25.9221  -79.3678 C.2       7 UNK         0.5089 
     39 O         -76.1955   26.2938  -80.4209 O.2       7 UNK        -0.5125 
     40 CA        -78.2359   25.6974  -79.3084 C.3       6 UNK         0.0408 
     41 CB        -78.5892   24.2531  -79.6931 C.3       6 UNK        -0.1791 
     42 N         -78.8015   26.0338  -77.9923 N.am      6 UNK        -0.4762 
     43 C         -79.0055   27.2998  -77.5856 C.2       6 UNK         0.5007 
     44 O         -78.7839   28.2670  -78.3164 O.2       6 UNK        -0.5032 
     45 CA        -79.5318   27.5347  -76.1450 C.3       5 UNK         0.0783 
     46 C46       -80.2517   28.9069  -75.9664 C.3       11 UNK        -0.0857 
     47 S47       -79.1277   30.3361  -75.7828 S.3       11 UNK        -0.2512 
     48 C48       -79.5252   30.9410  -74.1117 C.3       11 UNK         0.0225 
     49 N         -80.3476   26.4168  -75.6481 N.am      5 UNK        -0.4615 
     50 C         -81.5826   26.1050  -76.0655 C.2       4 UNK         0.5053 
     51 O         -82.1688   26.6800  -76.9836 O.2       4 UNK        -0.5105 
     52 CA        -82.2562   24.9214  -75.3646 C.3       4 UNK         0.0263 
     53 CB        -83.7946   25.0013  -75.3890 C.3       4 UNK        -0.1981 
     54 N         -81.8124   23.7192  -76.0517 N.am      4 UNK        -0.4224 
     55 C         -81.5153   22.5552  -75.4691 C.2       3 UNK         0.4895 
     56 O         -81.7170   22.3054  -74.2804 O.2       3 UNK        -0.5091 
     57 CA        -80.8392   21.4929  -76.3568 C.3       3 UNK         0.0250 
     58 CB        -81.1040   21.6735  -77.8684 C.3       3 UNK        -0.1996 
     59 N         -79.3970   21.4156  -76.0952 N.am      3 UNK        -0.4254 
     60 C         -78.5109   22.4232  -76.1223 C.2       2 UNK         0.5004 
     61 O         -78.7755   23.5892  -76.4344 O.2       2 UNK        -0.5226 
     62 CA        -77.0659   22.0645  -75.7502 C.3       2 UNK         0.0269 
     63 CB        -76.1781   22.0211  -77.0034 C.3       2 UNK        -0.1926 
     64 N         -76.5309   23.0496  -74.8148 N.am      2 UNK        -0.4687 
     65 C         -76.9173   23.1678  -73.5356 C.2       1 UNK         0.5165 
     66 O         -77.6725   22.3739  -72.9723 O.2       1 UNK        -0.5079 
     67 H67       -72.0302   23.0140  -73.0688 H         1 UNK         0.0900 
     68 H68       -71.9113   24.6380  -72.3891 H         1 UNK         0.0900 
     69 H69       -72.5357   24.4017  -74.0260 H         1 UNK         0.0900 
     70 H70       -74.7195   24.9483  -73.9562 H         1 UNK         0.2959 
     71 H71       -76.4407   24.1493  -71.6878 H         1 UNK         0.1079 
     72 H72       -76.4854   26.5121  -72.6920 H         1 UNK         0.0837 
     73 H73       -77.1393   25.8389  -74.1533 H         1 UNK         0.0837 
     74 H74       -79.4577   27.1080  -70.4988 H         1 UNK         0.0685 
     75 H75       -77.7733   26.6652  -70.3586 H         1 UNK         0.0685 
     76 H76       -79.8854   28.5262  -72.8836 H         1 UNK         0.1434 
     77 H77       -77.2277   31.8875  -73.0120 H         1 UNK         0.1329 
     78 H78       -76.3502   28.5596  -70.4571 H         1 UNK         0.1335 
     79 H79       -74.8082   30.3594  -70.5434 H         1 UNK         0.0680 
     80 H80       -75.6873   31.8740  -70.5856 H         1 UNK         0.0680 
     81 H81       -72.8213   31.8974  -70.6956 H         1 UNK         0.1032 
     82 H82       -73.3105   33.4093  -71.4137 H         1 UNK         0.1032 
     83 H83       -71.8765   32.9542  -73.4024 H         1 UNK         0.0461 
     84 H84       -68.5679   33.5916  -71.5424 H         1 UNK         0.3453 
     85 H85       -69.0081   32.2039  -72.5078 H         1 UNK         0.3453 
     86 H86       -71.2305   30.9123  -73.8879 H         1 UNK         0.2984 
     87 H87       -69.8260   28.9957  -73.6362 H         1 UNK         0.0554 
     88 H88       -70.2748   27.5242  -70.9808 H         1 UNK         0.0847 
     89 H89       -68.7687   28.2657  -71.5016 H         1 UNK         0.0847 
     90 H90       -69.4167   26.8940  -72.3852 H         1 UNK         0.0847 
     91 H91       -72.1951   27.5993  -72.5151 H         1 UNK         0.3141 
     92 H92       -73.5762   26.6412  -74.0362 H         1 UNK         0.0743 
     93 H93       -75.7319   27.9660  -74.4025 H         1 UNK         0.0784 
     94 H94       -74.7315   28.6154  -73.1150 H         1 UNK         0.0784 
     95 H95       -74.7610   29.4004  -74.6887 H         1 UNK         0.0784 
     96 H96       -73.2399   27.7984  -76.6855 H         1 UNK         0.3213 
     97 H97       -74.3761   26.9595  -78.4910 H         1 UNK         0.0855 
     98 H98       -73.9488   23.9393  -78.0300 H         1 UNK         0.0814 
     99 H99       -72.6838   25.1144  -78.3572 H         1 UNK         0.0814 
    100 H100      -73.8698   24.7416  -79.5975 H         1 UNK         0.0814 
    101 H101      -76.5438   25.4292  -77.4043 H         1 UNK         0.3105 
    102 H102      -78.6914   26.3497  -80.0567 H         1 UNK         0.0547 
    103 H103      -78.1960   24.0085  -80.6807 H         1 UNK         0.0837 
    104 H104      -78.1746   23.5280  -78.9941 H         1 UNK         0.0837 
    105 H105      -79.6683   24.1115  -79.7350 H         1 UNK         0.0837 
    106 H106      -78.9669   25.2605  -77.3504 H         1 UNK         0.3020 
    107 H107      -78.6441   27.5450  -75.5100 H         1 UNK         0.1245 
    108 H108      -80.8990   28.8689  -75.0901 H         1 UNK         0.0781 
    109 H109      -80.9236   29.1047  -76.8037 H         1 UNK         0.0781 
    110 H110      -80.5808   30.7894  -73.8830 H         1 UNK         0.0836 
    111 H111      -79.3710   32.0209  -74.0914 H         1 UNK         0.0836 
    112 H112      -79.9227   25.8463  -74.9292 H         1 UNK         0.3022 
    113 H113      -81.9232   24.9098  -74.3240 H         1 UNK         0.0747 
    114 H114      -84.2406   24.1714  -74.8407 H         1 UNK         0.0793 
    115 H115      -84.1437   25.9239  -74.9238 H         1 UNK         0.0793 
    116 H116      -84.1869   24.9775  -76.4065 H         1 UNK         0.0793 
    117 H117      -81.5642   23.8412  -77.0233 H         1 UNK         0.3047 
    118 H118      -81.2647   20.5325  -76.0613 H         1 UNK         0.0822 
    119 H119      -80.7103   20.8298  -78.4354 H         1 UNK         0.0807 
    120 H120      -80.6410   22.5754  -78.2652 H         1 UNK         0.0807 
    121 H121      -82.1733   21.7271  -78.0778 H         1 UNK         0.0807 
    122 H122      -79.0683   20.5069  -75.8000 H         1 UNK         0.2946 
    123 H123      -77.0436   21.0840  -75.2694 H         1 UNK         0.1144 
    124 H124      -76.5354   21.2706  -77.7094 H         1 UNK         0.0793 
    125 H125      -75.1483   21.7675  -76.7520 H         1 UNK         0.0793 
    126 H126      -76.1690   22.9786  -77.5235 H         1 UNK         0.0793 
    127 H127      -75.9419   23.7801  -75.2057 H         1 UNK         0.2896 
@<TRIPOS>BOND
     1    1    2 1    
     2    1   67 1    
     3    1   68 1    
     4    1   69 1    
     5    2    3 2    
     6    2    4 am   BACKBONE|DICT|INTERRES
     7    4    5 1    
     8    4   70 1    
     9    5    6 1    
    10    5   65 1    
    11    5   71 1    
    12    6    7 1    
    13    6   72 1    
    14    6   73 1    
    15    7    8 1    
    16    8    9 1    
    17    8   74 1    
    18    8   75 1    
    19    9   10 ar   
    20    9   14 ar   
    21   10   11 ar   
    22   10   76 1    
    23   11   12 ar   
    24   11   48 1    
    25   12   13 ar   
    26   12   77 1    
    27   13   14 ar   
    28   13   15 1    
    29   14   78 1    
    30   15   16 1    
    31   15   79 1    
    32   15   80 1    
    33   16   17 1    
    34   17   18 1    
    35   17   81 1    
    36   17   82 1    
    37   18   19 1    
    38   18   22 1    
    39   18   83 1    
    40   19   20 am   BACKBONE|DICT|INTERRES
    41   19   21 2    
    42   20   84 1    
    43   20   85 1    
    44   22   23 am   BACKBONE|DICT|INTERRES
    45   22   86 1    
    46   23   24 2    
    47   23   25 1    
    48   25   26 1    
    49   25   27 1    
    50   25   87 1    
    51   26   88 1    
    52   26   89 1    
    53   26   90 1    
    54   27   28 am   BACKBONE|DICT|INTERRES
    55   27   91 1    
    56   28   29 2    
    57   28   30 1    
    58   30   31 1    
    59   30   32 1    
    60   30   92 1    
    61   31   93 1    
    62   31   94 1    
    63   31   95 1    
    64   32   33 am   BACKBONE|DICT|INTERRES
    65   32   96 1    
    66   33   34 2    
    67   33   35 1    
    68   35   36 1    
    69   35   37 1    
    70   35   97 1    
    71   36   98 1    
    72   36   99 1    
    73   36  100 1    
    74   37   38 am   BACKBONE|DICT|INTERRES
    75   37  101 1    
    76   38   39 2    
    77   38   40 1    
    78   40   41 1    
    79   40   42 1    
    80   40  102 1    
    81   41  103 1    
    82   41  104 1    
    83   41  105 1    
    84   42   43 am   BACKBONE|DICT|INTERRES
    85   42  106 1    
    86   43   44 2    
    87   43   45 1    
    88   45   46 1    
    89   45   49 1    
    90   45  107 1    
    91   46   47 1    
    92   46  108 1    
    93   46  109 1    
    94   47   48 1    
    95   48  110 1    
    96   48  111 1    
    97   49   50 am   BACKBONE|DICT|INTERRES
    98   49  112 1    
    99   50   51 2    
   100   50   52 1    
   101   52   53 1    
   102   52   54 1    
   103   52  113 1    
   104   53  114 1    
   105   53  115 1    
   106   53  116 1    
   107   54   55 am   BACKBONE|DICT|INTERRES
   108   54  117 1    
   109   55   56 2    
   110   55   57 1    
   111   57   58 1    
   112   57   59 1    
   113   57  118 1    
   114   58  119 1    
   115   58  120 1    
   116   58  121 1    
   117   59   60 am   BACKBONE|DICT|INTERRES
   118   59  122 1    
   119   60   61 2    
   120   60   62 1    
   121   62   63 1    
   122   62   64 1    
   123   62  123 1    
   124   63  124 1    
   125   63  125 1    
   126   63  126 1    
   127   64   65 am   BACKBONE|DICT|INTERRES
   128   64  127 1    
   129   65   66 2    
@<TRIPOS>SUBSTRUCTURE
     1 UNK         1 GROUP             0       ****    0 ROOT    
