@<TRIPOS>MOLECULE
3R135
127   129    1
SMALL
USER_CHARGES


@<TRIPOS>ATOM
      1 CA        -82.9572   30.5056  -75.9218 C.3       0 UNK        -0.1998 
      2 C         -82.0943   29.4554  -75.2385 C.2       0 UNK         0.4909 
      3 O         -81.0375   29.0992  -75.7598 O.2       0 UNK        -0.5240 
      4 N         -82.5314   28.9687  -74.0703 N.am      1 UNK        -0.4739 
      5 CA        -81.8567   27.9172  -73.3010 C.3       1 UNK         0.0864 
      6 C6        -82.3049   27.9185  -71.8154 C.3       11 UNK        -0.0881 
      7 S7        -81.9983   29.4371  -70.8343 S.3       11 UNK        -0.2682 
      8 C8        -80.6452   30.3489  -71.6684 C.3       11 UNK         0.0289 
      9 C9        -79.2878   29.6446  -71.7435 C.ar      11 UNK        -0.0687 
     10 C10       -78.9587   28.5344  -70.9535 C.ar      11 UNK        -0.0823 
     11 C11       -77.7073   27.9194  -71.0625 C.ar      11 UNK        -0.0830 
     12 C12       -76.7669   28.4460  -71.9545 C.ar      11 UNK        -0.1021 
     13 C13       -77.0700   29.5599  -72.7383 C.ar      11 UNK        -0.0753 
     14 C14       -78.3324   30.1485  -72.6322 C.ar      11 UNK        -0.0933 
     15 C15       -76.0391   30.1225  -73.7057 C.3       11 UNK         0.0166 
     16 S16       -75.0486   31.4458  -72.9441 S.3       11 UNK        -0.2615 
     17 C17       -73.7956   30.4950  -72.0127 C.3       11 UNK        -0.0865 
     18 CA        -72.3907   30.5741  -72.6612 C.3       10 UNK         0.0862 
     19 C         -71.3313   29.8754  -71.7692 C.2       10 UNK         0.5551 
     20 N         -70.5797   30.6351  -70.9845 N.am      10 UNK        -0.7319 
     21 O         -71.2210   28.6513  -71.7483 O.2       10 UNK        -0.5018 
     22 N         -72.3908   30.0238  -74.0230 N.am      10 UNK        -0.4509 
     23 C         -71.4745   30.3074  -74.9550 C.2       10 UNK         0.4899 
     24 O         -70.5423   31.0958  -74.7849 O.2       10 UNK        -0.4839 
     25 CA        -71.6539   29.5961  -76.3087 C.3       9 UNK         0.0222 
     26 CB        -70.5226   29.9027  -77.3137 C.3       9 UNK        -0.1966 
     27 N         -71.8528   28.1493  -76.1670 N.am      9 UNK        -0.4218 
     28 C         -70.9944   27.2526  -75.6498 C.2       9 UNK         0.5020 
     29 O         -69.8871   27.5447  -75.1960 O.2       9 UNK        -0.5274 
     30 CA        -71.4210   25.7697  -75.6429 C.3       8 UNK         0.0270 
     31 CB        -71.6586   25.2747  -74.2060 C.3       8 UNK        -0.1976 
     32 N         -72.6099   25.5015  -76.4576 N.am      8 UNK        -0.4313 
     33 C         -72.6165   25.4665  -77.7983 C.2       8 UNK         0.5041 
     34 O         -71.5987   25.5658  -78.4850 O.2       8 UNK        -0.5577 
     35 CA        -73.9782   25.3275  -78.5049 C.3       7 UNK         0.0284 
     36 CB        -74.1973   23.8747  -78.9559 C.3       7 UNK        -0.1958 
     37 N         -75.1272   25.7727  -77.7071 N.am      7 UNK        -0.4454 
     38 C         -75.3205   27.0234  -77.2607 C.2       7 UNK         0.5089 
     39 O         -74.5421   27.9535  -77.4721 O.2       7 UNK        -0.5125 
     40 CA        -76.5480   27.2575  -76.3641 C.3       6 UNK         0.0408 
     41 CB        -77.8337   27.3668  -77.1970 C.3       6 UNK        -0.1791 
     42 N         -76.7023   26.2133  -75.3502 N.am      6 UNK        -0.4762 
     43 C         -75.8131   25.9355  -74.3854 C.2       6 UNK         0.5007 
     44 O         -74.7868   26.5893  -74.2014 O.2       6 UNK        -0.5032 
     45 CA        -76.0792   24.6740  -73.5394 C.3       5 UNK         0.0783 
     46 C46       -77.0472   24.9293  -72.3567 C.3       11 UNK        -0.0857 
     47 S47       -76.1755   25.5402  -70.8773 S.3       11 UNK        -0.2512 
     48 C48       -77.3949   26.7094  -70.1818 C.3       11 UNK         0.0225 
     49 N         -76.5531   23.5782  -74.3860 N.am      5 UNK        -0.4615 
     50 C         -75.7720   22.8449  -75.1887 C.2       4 UNK         0.5053 
     51 O         -74.5533   22.9913  -75.2763 O.2       4 UNK        -0.5105 
     52 CA        -76.4697   21.7735  -76.0456 C.3       4 UNK         0.0263 
     53 CB        -76.5121   20.4324  -75.2962 C.3       4 UNK        -0.1981 
     54 N         -77.8289   22.1495  -76.4474 N.am      4 UNK        -0.4224 
     55 C         -78.1116   23.1368  -77.3085 C.2       3 UNK         0.4895 
     56 O         -77.2571   23.8238  -77.8663 O.2       3 UNK        -0.5091 
     57 CA        -79.5995   23.4446  -77.5493 C.3       3 UNK         0.0250 
     58 CB        -80.1997   22.4563  -78.5622 C.3       3 UNK        -0.1996 
     59 N         -80.4213   23.4672  -76.3313 N.am      3 UNK        -0.4254 
     60 C         -80.1855   24.2439  -75.2650 C.2       2 UNK         0.5004 
     61 O         -79.1784   24.9416  -75.1337 O.2       2 UNK        -0.5226 
     62 CA        -81.2171   24.2179  -74.1312 C.3       2 UNK         0.0269 
     63 CB        -80.8112   23.1918  -73.0611 C.3       2 UNK        -0.1926 
     64 N         -81.2786   25.5472  -73.5217 N.am      2 UNK        -0.4687 
     65 C         -82.0896   26.5281  -73.9365 C.2       1 UNK         0.5165 
     66 O         -82.9958   26.3577  -74.7579 O.2       1 UNK        -0.5079 
     67 H67       -82.3904   31.4265  -76.0570 H         1 UNK         0.0900 
     68 H68       -83.8506   30.7391  -75.3429 H         1 UNK         0.0900 
     69 H69       -83.2716   30.1511  -76.9031 H         1 UNK         0.0900 
     70 H70       -83.4168   29.2812  -73.6989 H         1 UNK         0.2959 
     71 H71       -80.7815   28.0948  -73.3512 H         1 UNK         0.1079 
     72 H72       -81.8141   27.1062  -71.2761 H         1 UNK         0.0837 
     73 H73       -83.3733   27.7026  -71.7507 H         1 UNK         0.0837 
     74 H74       -80.9696   30.6382  -72.6675 H         1 UNK         0.0685 
     75 H75       -80.5002   31.2836  -71.1255 H         1 UNK         0.0685 
     76 H76       -79.6730   28.1411  -70.2446 H         1 UNK         0.1434 
     77 H77       -75.7930   27.9883  -72.0450 H         1 UNK         0.1329 
     78 H78       -78.5687   31.0103  -73.2416 H         1 UNK         0.1335 
     79 H79       -75.3788   29.3328  -74.0660 H         1 UNK         0.0680 
     80 H80       -76.5429   30.5232  -74.5866 H         1 UNK         0.0680 
     81 H81       -74.1047   29.4557  -71.9051 H         1 UNK         0.1032 
     82 H82       -73.7665   30.9019  -71.0000 H         1 UNK         0.1032 
     83 H83       -72.1266   31.6317  -72.7335 H         1 UNK         0.0461 
     84 H84       -70.6698   31.6394  -70.9895 H         1 UNK         0.3453 
     85 H85       -69.8978   30.1968  -70.3852 H         1 UNK         0.3453 
     86 H86       -73.0929   29.3283  -74.2254 H         1 UNK         0.2984 
     87 H87       -72.5796   29.9857  -76.7349 H         1 UNK         0.0554 
     88 H88       -70.6967   29.4080  -78.2692 H         1 UNK         0.0847 
     89 H89       -69.5492   29.5813  -76.9420 H         1 UNK         0.0847 
     90 H90       -70.4562   30.9733  -77.5110 H         1 UNK         0.0847 
     91 H91       -72.7428   27.8093  -76.5183 H         1 UNK         0.3141 
     92 H92       -70.5919   25.1937  -76.0595 H         1 UNK         0.0743 
     93 H93       -72.3872   25.8893  -73.6784 H         1 UNK         0.0784 
     94 H94       -72.0100   24.2427  -74.1895 H         1 UNK         0.0784 
     95 H95       -70.7344   25.3128  -73.6280 H         1 UNK         0.0784 
     96 H96       -73.4874   25.3990  -75.9645 H         1 UNK         0.3213 
     97 H97       -73.9403   25.9574  -79.3961 H         1 UNK         0.0855 
     98 H98       -74.2810   23.1987  -78.1048 H         1 UNK         0.0814 
     99 H99       -73.3660   23.5250  -79.5698 H         1 UNK         0.0814 
    100 H100      -75.1028   23.7763  -79.5547 H         1 UNK         0.0814 
    101 H101      -75.8518   25.0795  -77.5332 H         1 UNK         0.3105 
    102 H102      -76.4064   28.2056  -75.8453 H         1 UNK         0.0547 
    103 H103      -78.0491   26.4439  -77.7353 H         1 UNK         0.0837 
    104 H104      -78.6945   27.5927  -76.5665 H         1 UNK         0.0837 
    105 H105      -77.7539   28.1657  -77.9352 H         1 UNK         0.0837 
    106 H106      -77.5565   25.6580  -75.3934 H         1 UNK         0.3020 
    107 H107      -75.1147   24.3626  -73.1296 H         1 UNK         0.1245 
    108 H108      -77.8579   25.6027  -72.6416 H         1 UNK         0.0781 
    109 H109      -77.5287   23.9975  -72.0568 H         1 UNK         0.0781 
    110 H110      -78.3104   26.1567  -69.9643 H         1 UNK         0.0836 
    111 H111      -77.0184   27.0708  -69.2242 H         1 UNK         0.0836 
    112 H112      -77.5537   23.4504  -74.4344 H         1 UNK         0.3022 
    113 H113      -75.8753   21.6382  -76.9517 H         1 UNK         0.0747 
    114 H114      -76.9299   19.6420  -75.9201 H         1 UNK         0.0793 
    115 H115      -75.5088   20.1168  -75.0059 H         1 UNK         0.0793 
    116 H116      -77.1100   20.4949  -74.3860 H         1 UNK         0.0793 
    117 H117      -78.5931   21.6366  -76.0320 H         1 UNK         0.3047 
    118 H118      -79.6507   24.4444  -77.9856 H         1 UNK         0.0822 
    119 H119      -81.2154   22.7394  -78.8392 H         1 UNK         0.0807 
    120 H120      -80.2295   21.4393  -78.1692 H         1 UNK         0.0807 
    121 H121      -79.6114   22.4336  -79.4809 H         1 UNK         0.0807 
    122 H122      -81.2608   22.9055  -76.3472 H         1 UNK         0.2946 
    123 H123      -82.1943   23.9425  -74.5352 H         1 UNK         0.1144 
    124 H124      -81.5337   23.1666  -72.2450 H         1 UNK         0.0793 
    125 H125      -79.8334   23.4143  -72.6334 H         1 UNK         0.0793 
    126 H126      -80.7634   22.1859  -73.4803 H         1 UNK         0.0793 
    127 H127      -80.5318   25.7714  -72.8806 H         1 UNK         0.2896 
@<TRIPOS>BOND
     1    1    2 1    
     2    1   67 1    
     3    1   68 1    
     4    1   69 1    
     5    2    3 2    
     6    2    4 am   BACKBONE|DICT|INTERRES
     7    4    5 1    
     8    4   70 1    
     9    5    6 1    
    10    5   65 1    
    11    5   71 1    
    12    6    7 1    
    13    6   72 1    
    14    6   73 1    
    15    7    8 1    
    16    8    9 1    
    17    8   74 1    
    18    8   75 1    
    19    9   10 ar   
    20    9   14 ar   
    21   10   11 ar   
    22   10   76 1    
    23   11   12 ar   
    24   11   48 1    
    25   12   13 ar   
    26   12   77 1    
    27   13   14 ar   
    28   13   15 1    
    29   14   78 1    
    30   15   16 1    
    31   15   79 1    
    32   15   80 1    
    33   16   17 1    
    34   17   18 1    
    35   17   81 1    
    36   17   82 1    
    37   18   19 1    
    38   18   22 1    
    39   18   83 1    
    40   19   20 am   BACKBONE|DICT|INTERRES
    41   19   21 2    
    42   20   84 1    
    43   20   85 1    
    44   22   23 am   BACKBONE|DICT|INTERRES
    45   22   86 1    
    46   23   24 2    
    47   23   25 1    
    48   25   26 1    
    49   25   27 1    
    50   25   87 1    
    51   26   88 1    
    52   26   89 1    
    53   26   90 1    
    54   27   28 am   BACKBONE|DICT|INTERRES
    55   27   91 1    
    56   28   29 2    
    57   28   30 1    
    58   30   31 1    
    59   30   32 1    
    60   30   92 1    
    61   31   93 1    
    62   31   94 1    
    63   31   95 1    
    64   32   33 am   BACKBONE|DICT|INTERRES
    65   32   96 1    
    66   33   34 2    
    67   33   35 1    
    68   35   36 1    
    69   35   37 1    
    70   35   97 1    
    71   36   98 1    
    72   36   99 1    
    73   36  100 1    
    74   37   38 am   BACKBONE|DICT|INTERRES
    75   37  101 1    
    76   38   39 2    
    77   38   40 1    
    78   40   41 1    
    79   40   42 1    
    80   40  102 1    
    81   41  103 1    
    82   41  104 1    
    83   41  105 1    
    84   42   43 am   BACKBONE|DICT|INTERRES
    85   42  106 1    
    86   43   44 2    
    87   43   45 1    
    88   45   46 1    
    89   45   49 1    
    90   45  107 1    
    91   46   47 1    
    92   46  108 1    
    93   46  109 1    
    94   47   48 1    
    95   48  110 1    
    96   48  111 1    
    97   49   50 am   BACKBONE|DICT|INTERRES
    98   49  112 1    
    99   50   51 2    
   100   50   52 1    
   101   52   53 1    
   102   52   54 1    
   103   52  113 1    
   104   53  114 1    
   105   53  115 1    
   106   53  116 1    
   107   54   55 am   BACKBONE|DICT|INTERRES
   108   54  117 1    
   109   55   56 2    
   110   55   57 1    
   111   57   58 1    
   112   57   59 1    
   113   57  118 1    
   114   58  119 1    
   115   58  120 1    
   116   58  121 1    
   117   59   60 am   BACKBONE|DICT|INTERRES
   118   59  122 1    
   119   60   61 2    
   120   60   62 1    
   121   62   63 1    
   122   62   64 1    
   123   62  123 1    
   124   63  124 1    
   125   63  125 1    
   126   63  126 1    
   127   64   65 am   BACKBONE|DICT|INTERRES
   128   64  127 1    
   129   65   66 2    
@<TRIPOS>SUBSTRUCTURE
     1 UNK         1 GROUP             0       ****    0 ROOT    
