@<TRIPOS>MOLECULE
3R135
127   129    1
SMALL
USER_CHARGES


@<TRIPOS>ATOM
      1 CA        -79.9361   25.1027  -70.5387 C.3       0 UNK        -0.1998 
      2 C         -81.1745   25.5172  -71.3177 C.2       0 UNK         0.4909 
      3 O         -82.1937   24.8293  -71.2574 O.2       0 UNK        -0.5240 
      4 N         -81.0945   26.6372  -72.0490 N.am      1 UNK        -0.4739 
      5 CA        -82.1881   27.1822  -72.8693 C.3       1 UNK         0.0864 
      6 C6        -81.9443   28.6664  -73.2362 C.3       11 UNK        -0.0881 
      7 S7        -81.8244   29.7152  -71.7483 S.3       11 UNK        -0.2682 
      8 C8        -80.5857   30.9535  -72.2577 C.3       11 UNK         0.0289 
      9 C9        -79.1671   30.4102  -72.4260 C.ar      11 UNK        -0.0687 
     10 C10       -78.6285   29.4711  -71.5405 C.ar      11 UNK        -0.0823 
     11 C11       -77.3074   29.0324  -71.6761 C.ar      11 UNK        -0.0830 
     12 C12       -76.5147   29.5553  -72.7069 C.ar      11 UNK        -0.1021 
     13 C13       -77.0313   30.5112  -73.5943 C.ar      11 UNK        -0.0753 
     14 C14       -78.3600   30.9198  -73.4459 C.ar      11 UNK        -0.0933 
     15 C15       -76.2084   31.1746  -74.7033 C.3       11 UNK         0.0166 
     16 S16       -74.6242   30.3792  -75.1316 S.3       11 UNK        -0.2615 
     17 C17       -73.4856   31.0961  -73.9030 C.3       11 UNK        -0.0865 
     18 CA        -72.0019   30.7358  -74.2094 C.3       10 UNK         0.0862 
     19 C         -70.9959   31.5416  -73.3294 C.2       10 UNK         0.5551 
     20 N         -69.8349   30.9961  -72.9867 N.am      10 UNK        -0.7319 
     21 O         -71.2515   32.6912  -72.9785 O.2       10 UNK        -0.5018 
     22 N         -71.7501   29.2805  -74.2594 N.am      10 UNK        -0.4509 
     23 C         -71.8693   28.4229  -73.2359 C.2       10 UNK         0.4899 
     24 O         -72.2487   28.7449  -72.1091 O.2       10 UNK        -0.4839 
     25 CA        -71.4652   26.9683  -73.5227 C.3       9 UNK         0.0222 
     26 CB        -71.8616   25.9897  -72.4002 C.3       9 UNK        -0.1966 
     27 N         -72.0295   26.5159  -74.7937 N.am      9 UNK        -0.4218 
     28 C         -71.4160   25.6963  -75.6566 C.2       9 UNK         0.5020 
     29 O         -70.2780   25.2540  -75.4896 O.2       9 UNK        -0.5274 
     30 CA        -72.1936   25.2819  -76.9188 C.3       8 UNK         0.0270 
     31 CB        -73.0350   24.0262  -76.6378 C.3       8 UNK        -0.1976 
     32 N         -73.0626   26.3250  -77.4659 N.am      8 UNK        -0.4313 
     33 C         -72.6694   27.5094  -77.9502 C.2       8 UNK         0.5041 
     34 O         -71.4944   27.8764  -77.9817 O.2       8 UNK        -0.5577 
     35 CA        -73.7611   28.4601  -78.4800 C.3       7 UNK         0.0284 
     36 CB        -74.0182   28.2374  -79.9832 C.3       7 UNK        -0.1958 
     37 N         -75.0061   28.4382  -77.6988 N.am      7 UNK        -0.4454 
     38 C         -75.9146   27.4625  -77.5793 C.2       7 UNK         0.5089 
     39 O         -75.8855   26.4029  -78.2069 O.2       7 UNK        -0.5125 
     40 CA        -76.9908   27.6770  -76.5043 C.3       6 UNK         0.0408 
     41 CB        -78.3972   27.7172  -77.1212 C.3       6 UNK        -0.1791 
     42 N         -76.9294   26.6418  -75.4705 N.am      6 UNK        -0.4762 
     43 C         -75.8687   26.3924  -74.6854 C.2       6 UNK         0.5007 
     44 O         -74.7954   26.9872  -74.7790 O.2       6 UNK        -0.5032 
     45 CA        -76.0078   25.2804  -73.6328 C.3       5 UNK         0.0783 
     46 C46       -76.7320   25.7790  -72.3575 C.3       11 UNK        -0.0857 
     47 S47       -75.6259   26.7812  -71.3095 S.3       11 UNK        -0.2512 
     48 C48       -76.7397   28.0615  -70.6417 C.3       11 UNK         0.0225 
     49 N         -76.6576   24.1019  -74.2092 N.am      5 UNK        -0.4615 
     50 C         -76.1369   22.8666  -74.2158 C.2       4 UNK         0.5053 
     51 O         -75.0661   22.5725  -73.6843 O.2       4 UNK        -0.5105 
     52 CA        -76.9352   21.7580  -74.9322 C.3       4 UNK         0.0263 
     53 CB        -77.7544   20.9483  -73.9141 C.3       4 UNK        -0.1981 
     54 N         -77.8339   22.2669  -75.9699 N.am      4 UNK        -0.4224 
     55 C         -77.4389   22.8544  -77.1078 C.2       3 UNK         0.4895 
     56 O         -76.2682   22.8759  -77.4865 O.2       3 UNK        -0.5091 
     57 CA        -78.5162   23.5566  -77.9619 C.3       3 UNK         0.0250 
     58 CB        -78.7629   22.7710  -79.2608 C.3       3 UNK        -0.1996 
     59 N         -79.8120   23.8070  -77.3067 N.am      3 UNK        -0.4254 
     60 C         -80.0132   24.4827  -76.1667 C.2       2 UNK         0.5004 
     61 O         -79.1007   24.9147  -75.4547 O.2       2 UNK        -0.5226 
     62 CA        -81.4677   24.6782  -75.7244 C.3       2 UNK         0.0269 
     63 CB        -82.1277   23.3376  -75.3488 C.3       2 UNK        -0.1926 
     64 N         -81.4611   25.5610  -74.5641 N.am      2 UNK        -0.4687 
     65 C         -82.4566   26.3441  -74.1392 C.2       1 UNK         0.5165 
     66 O         -83.5501   26.4211  -74.7015 O.2       1 UNK        -0.5079 
     67 H67       -79.5051   24.2003  -70.9714 H         1 UNK         0.0900 
     68 H68       -80.1972   24.8928  -69.5018 H         1 UNK         0.0900 
     69 H69       -79.1760   25.8818  -70.5413 H         1 UNK         0.0900 
     70 H70       -80.2440   27.1807  -72.0466 H         1 UNK         0.2959 
     71 H71       -83.1036   27.1314  -72.2750 H         1 UNK         0.1079 
     72 H72       -81.0370   28.7674  -73.8351 H         1 UNK         0.0837 
     73 H73       -82.7612   29.0535  -73.8488 H         1 UNK         0.0837 
     74 H74       -80.9298   31.4211  -73.1817 H         1 UNK         0.0685 
     75 H75       -80.5602   31.7431  -71.5057 H         1 UNK         0.0685 
     76 H76       -79.2334   29.1027  -70.7233 H         1 UNK         0.1434 
     77 H77       -75.4900   29.2247  -72.7965 H         1 UNK         0.1329 
     78 H78       -78.7621   31.6662  -74.1178 H         1 UNK         0.1335 
     79 H79       -76.8107   31.1972  -75.6128 H         1 UNK         0.0680 
     80 H80       -76.0265   32.2162  -74.4356 H         1 UNK         0.0680 
     81 H81       -73.7673   30.7696  -72.9016 H         1 UNK         0.1032 
     82 H82       -73.6248   32.1784  -73.9179 H         1 UNK         0.1032 
     83 H83       -71.7986   31.0860  -75.2221 H         1 UNK         0.0461 
     84 H84       -69.1851   31.5265  -72.4281 H         1 UNK         0.3453 
     85 H85       -69.6049   30.0601  -73.2787 H         1 UNK         0.3453 
     86 H86       -71.4235   28.9239  -75.1464 H         1 UNK         0.2984 
     87 H87       -70.3756   26.9753  -73.5918 H         1 UNK         0.0554 
     88 H88       -71.5130   24.9789  -72.6117 H         1 UNK         0.0847 
     89 H89       -72.9425   25.9507  -72.2705 H         1 UNK         0.0847 
     90 H90       -71.4274   26.2879  -71.4453 H         1 UNK         0.0847 
     91 H91       -72.9878   26.8142  -74.9810 H         1 UNK         0.3141 
     92 H92       -71.4587   25.0355  -77.6878 H         1 UNK         0.0743 
     93 H93       -73.8205   24.2223  -75.9071 H         1 UNK         0.0784 
     94 H94       -73.5112   23.6549  -77.5456 H         1 UNK         0.0784 
     95 H95       -72.4170   23.2186  -76.2430 H         1 UNK         0.0784 
     96 H96       -74.0551   26.1164  -77.5210 H         1 UNK         0.3213 
     97 H97       -73.3679   29.4715  -78.3637 H         1 UNK         0.0855 
     98 H98       -73.1017   28.3817  -80.5568 H         1 UNK         0.0814 
     99 H99       -74.7559   28.9412  -80.3683 H         1 UNK         0.0814 
    100 H100      -74.3731   27.2285  -80.1947 H         1 UNK         0.0814 
    101 H101      -75.0929   29.2108  -77.0483 H         1 UNK         0.3105 
    102 H102      -76.8218   28.6333  -76.0096 H         1 UNK         0.0547 
    103 H103      -78.4825   28.5341  -77.8387 H         1 UNK         0.0837 
    104 H104      -78.6331   26.7950  -77.6513 H         1 UNK         0.0837 
    105 H105      -79.1614   27.8727  -76.3594 H         1 UNK         0.0837 
    106 H106      -77.7613   26.0635  -75.3767 H         1 UNK         0.3020 
    107 H107      -74.9864   25.0111  -73.3537 H         1 UNK         0.1245 
    108 H108      -77.0522   24.9274  -71.7556 H         1 UNK         0.0781 
    109 H109      -77.6385   26.3342  -72.6056 H         1 UNK         0.0781 
    110 H110      -76.1834   28.6427  -69.9054 H         1 UNK         0.0836 
    111 H111      -77.5414   27.5677  -70.0918 H         1 UNK         0.0836 
    112 H112      -77.5416   24.2632  -74.6845 H         1 UNK         0.3022 
    113 H113      -76.2148   21.0887  -75.4073 H         1 UNK         0.0747 
    114 H114      -78.2687   20.1138  -74.3912 H         1 UNK         0.0793 
    115 H115      -77.1096   20.5292  -73.1402 H         1 UNK         0.0793 
    116 H116      -78.5030   21.5654  -73.4152 H         1 UNK         0.0793 
    117 H117      -78.8177   22.2899  -75.7468 H         1 UNK         0.3047 
    118 H118      -78.1002   24.5293  -78.2308 H         1 UNK         0.0822 
    119 H119      -79.4223   23.3158  -79.9368 H         1 UNK         0.0807 
    120 H120      -79.2114   21.7966  -79.0631 H         1 UNK         0.0807 
    121 H121      -77.8290   22.5969  -79.7976 H         1 UNK         0.0807 
    122 H122      -80.6232   23.4707  -77.8062 H         1 UNK         0.2946 
    123 H123      -82.0160   25.1534  -76.5411 H         1 UNK         0.1144 
    124 H124      -82.1628   22.6563  -76.1995 H         1 UNK         0.0793 
    125 H125      -83.1553   23.4829  -75.0150 H         1 UNK         0.0793 
    126 H126      -81.5873   22.8345  -74.5458 H         1 UNK         0.0793 
    127 H127      -80.5707   25.5987  -74.0843 H         1 UNK         0.2896 
@<TRIPOS>BOND
     1    1    2 1    
     2    1   67 1    
     3    1   68 1    
     4    1   69 1    
     5    2    3 2    
     6    2    4 am   BACKBONE|DICT|INTERRES
     7    4    5 1    
     8    4   70 1    
     9    5    6 1    
    10    5   65 1    
    11    5   71 1    
    12    6    7 1    
    13    6   72 1    
    14    6   73 1    
    15    7    8 1    
    16    8    9 1    
    17    8   74 1    
    18    8   75 1    
    19    9   10 ar   
    20    9   14 ar   
    21   10   11 ar   
    22   10   76 1    
    23   11   12 ar   
    24   11   48 1    
    25   12   13 ar   
    26   12   77 1    
    27   13   14 ar   
    28   13   15 1    
    29   14   78 1    
    30   15   16 1    
    31   15   79 1    
    32   15   80 1    
    33   16   17 1    
    34   17   18 1    
    35   17   81 1    
    36   17   82 1    
    37   18   19 1    
    38   18   22 1    
    39   18   83 1    
    40   19   20 am   BACKBONE|DICT|INTERRES
    41   19   21 2    
    42   20   84 1    
    43   20   85 1    
    44   22   23 am   BACKBONE|DICT|INTERRES
    45   22   86 1    
    46   23   24 2    
    47   23   25 1    
    48   25   26 1    
    49   25   27 1    
    50   25   87 1    
    51   26   88 1    
    52   26   89 1    
    53   26   90 1    
    54   27   28 am   BACKBONE|DICT|INTERRES
    55   27   91 1    
    56   28   29 2    
    57   28   30 1    
    58   30   31 1    
    59   30   32 1    
    60   30   92 1    
    61   31   93 1    
    62   31   94 1    
    63   31   95 1    
    64   32   33 am   BACKBONE|DICT|INTERRES
    65   32   96 1    
    66   33   34 2    
    67   33   35 1    
    68   35   36 1    
    69   35   37 1    
    70   35   97 1    
    71   36   98 1    
    72   36   99 1    
    73   36  100 1    
    74   37   38 am   BACKBONE|DICT|INTERRES
    75   37  101 1    
    76   38   39 2    
    77   38   40 1    
    78   40   41 1    
    79   40   42 1    
    80   40  102 1    
    81   41  103 1    
    82   41  104 1    
    83   41  105 1    
    84   42   43 am   BACKBONE|DICT|INTERRES
    85   42  106 1    
    86   43   44 2    
    87   43   45 1    
    88   45   46 1    
    89   45   49 1    
    90   45  107 1    
    91   46   47 1    
    92   46  108 1    
    93   46  109 1    
    94   47   48 1    
    95   48  110 1    
    96   48  111 1    
    97   49   50 am   BACKBONE|DICT|INTERRES
    98   49  112 1    
    99   50   51 2    
   100   50   52 1    
   101   52   53 1    
   102   52   54 1    
   103   52  113 1    
   104   53  114 1    
   105   53  115 1    
   106   53  116 1    
   107   54   55 am   BACKBONE|DICT|INTERRES
   108   54  117 1    
   109   55   56 2    
   110   55   57 1    
   111   57   58 1    
   112   57   59 1    
   113   57  118 1    
   114   58  119 1    
   115   58  120 1    
   116   58  121 1    
   117   59   60 am   BACKBONE|DICT|INTERRES
   118   59  122 1    
   119   60   61 2    
   120   60   62 1    
   121   62   63 1    
   122   62   64 1    
   123   62  123 1    
   124   63  124 1    
   125   63  125 1    
   126   63  126 1    
   127   64   65 am   BACKBONE|DICT|INTERRES
   128   64  127 1    
   129   65   66 2    
@<TRIPOS>SUBSTRUCTURE
     1 UNK         1 GROUP             0       ****    0 ROOT    
