@<TRIPOS>MOLECULE
3R135
127   129    1
SMALL
USER_CHARGES


@<TRIPOS>ATOM
      1 CA        -82.7978   28.3393  -79.2263 C.3       0 UNK        -0.1998 
      2 C         -81.8080   27.9112  -78.1536 C.2       0 UNK         0.4909 
      3 O         -81.3480   26.7681  -78.1646 O.2       0 UNK        -0.5240 
      4 N         -81.4698   28.8193  -77.2271 N.am      1 UNK        -0.4739 
      5 CA        -80.5724   28.5505  -76.0990 C.3       1 UNK         0.0864 
      6 C6        -80.1207   29.8531  -75.3919 C.3       11 UNK        -0.0881 
      7 S7        -78.4575   29.6785  -74.6647 S.3       11 UNK        -0.2682 
      8 C8        -78.8534   29.4805  -72.8993 C.3       11 UNK         0.0289 
      9 C9        -77.6330   29.0897  -72.0754 C.ar      11 UNK        -0.0687 
     10 C10       -76.9018   27.9376  -72.3843 C.ar      11 UNK        -0.0823 
     11 C11       -75.8032   27.5571  -71.6056 C.ar      11 UNK        -0.0830 
     12 C12       -75.4409   28.3372  -70.5034 C.ar      11 UNK        -0.1021 
     13 C13       -76.1578   29.4962  -70.1902 C.ar      11 UNK        -0.0753 
     14 C14       -77.2507   29.8664  -70.9789 C.ar      11 UNK        -0.0933 
     15 C15       -75.7683   30.3505  -68.9941 C.3       11 UNK         0.0166 
     16 S16       -74.7402   31.7699  -69.4868 S.3       11 UNK        -0.2615 
     17 C17       -73.0936   31.0015  -69.6631 C.3       11 UNK        -0.0865 
     18 CA        -72.5020   31.1314  -71.0913 C.3       10 UNK         0.0862 
     19 C         -71.0164   30.6580  -71.1028 C.2       10 UNK         0.5551 
     20 N         -70.6527   29.5831  -71.7921 N.am      10 UNK        -0.7319 
     21 O         -70.1731   31.2868  -70.4678 O.2       10 UNK        -0.5018 
     22 N         -73.3613   30.5003  -72.1074 N.am      10 UNK        -0.4509 
     23 C         -73.2456   30.6995  -73.4252 C.2       10 UNK         0.4899 
     24 O         -72.4771   31.5157  -73.9385 O.2       10 UNK        -0.4839 
     25 CA        -74.1146   29.8109  -74.3310 C.3       9 UNK         0.0222 
     26 CB        -75.0608   30.6633  -75.1903 C.3       9 UNK        -0.1966 
     27 N         -73.2982   28.9679  -75.2077 N.am      9 UNK        -0.4218 
     28 C         -72.3696   28.0888  -74.8030 C.2       9 UNK         0.5020 
     29 O         -72.1181   27.8543  -73.6184 O.2       9 UNK        -0.5274 
     30 CA        -71.6106   27.3450  -75.9134 C.3       8 UNK         0.0270 
     31 CB        -70.7580   26.1786  -75.3776 C.3       8 UNK        -0.1976 
     32 N         -72.5601   26.8307  -76.8986 N.am      8 UNK        -0.4313 
     33 C         -72.4618   26.9641  -78.2274 C.2       8 UNK         0.5041 
     34 O         -71.5413   27.5655  -78.7830 O.2       8 UNK        -0.5577 
     35 CA        -73.5549   26.3139  -79.1014 C.3       7 UNK         0.0284 
     36 CB        -73.0016   25.0648  -79.8077 C.3       7 UNK        -0.1958 
     37 N         -74.7669   25.9422  -78.3660 N.am      7 UNK        -0.4454 
     38 C         -75.6714   26.8079  -77.8898 C.2       7 UNK         0.5089 
     39 O         -75.6151   28.0239  -78.0716 O.2       7 UNK        -0.5125 
     40 CA        -76.8169   26.2220  -77.0392 C.3       6 UNK         0.0408 
     41 CB        -78.0440   25.9579  -77.9243 C.3       6 UNK        -0.1791 
     42 N         -76.4936   24.9982  -76.2859 N.am      6 UNK        -0.4762 
     43 C         -75.4677   24.8508  -75.4304 C.2       6 UNK         0.5007 
     44 O         -74.5884   25.6980  -75.2923 O.2       6 UNK        -0.5032 
     45 CA        -75.3870   23.5513  -74.6044 C.3       5 UNK         0.0783 
     46 C46       -74.8765   23.7752  -73.1527 C.3       11 UNK        -0.0857 
     47 S47       -75.9660   24.8155  -72.1146 S.3       11 UNK        -0.2512 
     48 C48       -74.9722   26.3411  -71.9922 C.3       11 UNK         0.0225 
     49 N         -76.6471   22.7997  -74.6396 N.am      5 UNK        -0.4615 
     50 C         -76.7439   21.4958  -74.9272 C.2       4 UNK         0.5053 
     51 O         -75.7833   20.7869  -75.2287 O.2       4 UNK        -0.5105 
     52 CA        -78.1446   20.8634  -74.8657 C.3       4 UNK         0.0263 
     53 CB        -78.4165   20.3076  -73.4586 C.3       4 UNK        -0.1981 
     54 N         -79.2294   21.7743  -75.2382 N.am      4 UNK        -0.4224 
     55 C         -79.4472   22.2748  -76.4604 C.2       3 UNK         0.4895 
     56 O         -78.7109   22.0696  -77.4248 O.2       3 UNK        -0.5091 
     57 CA        -80.6857   23.1724  -76.6376 C.3       3 UNK         0.0250 
     58 CB        -81.9864   22.3455  -76.6363 C.3       3 UNK        -0.1996 
     59 N         -80.7499   24.2931  -75.6891 N.am      3 UNK        -0.4254 
     60 C         -80.8919   24.2726  -74.3538 C.2       2 UNK         0.5004 
     61 O         -81.0586   23.2407  -73.7019 O.2       2 UNK        -0.5226 
     62 CA        -80.7676   25.6162  -73.6100 C.3       2 UNK         0.0269 
     63 CB        -79.7422   25.5118  -72.4678 C.3       2 UNK        -0.1926 
     64 N         -80.3616   26.7072  -74.5024 N.am      2 UNK        -0.4687 
     65 C         -81.2061   27.5487  -75.1097 C.2       1 UNK         0.5165 
     66 O         -82.4246   27.5538  -74.9185 O.2       1 UNK        -0.5079 
     67 H67       -83.6856   27.7086  -79.1889 H         1 UNK         0.0900 
     68 H68       -82.3479   28.2369  -80.2134 H         1 UNK         0.0900 
     69 H69       -83.1116   29.3755  -79.1017 H         1 UNK         0.0900 
     70 H70       -81.9008   29.7326  -77.2446 H         1 UNK         0.2959 
     71 H71       -79.6898   28.0769  -76.5350 H         1 UNK         0.1079 
     72 H72       -80.0505   30.6665  -76.1160 H         1 UNK         0.0837 
     73 H73       -80.8424   30.1876  -74.6435 H         1 UNK         0.0837 
     74 H74       -79.6211   28.7188  -72.7705 H         1 UNK         0.0685 
     75 H75       -79.2841   30.4142  -72.5346 H         1 UNK         0.0685 
     76 H76       -77.1810   27.3389  -73.2400 H         1 UNK         0.1434 
     77 H77       -74.5944   28.0489  -69.8952 H         1 UNK         0.1329 
     78 H78       -77.8071   30.7601  -70.7308 H         1 UNK         0.1335 
     79 H79       -75.2502   29.7552  -68.2406 H         1 UNK         0.0680 
     80 H80       -76.6706   30.7270  -68.5096 H         1 UNK         0.0680 
     81 H81       -72.4403   31.4908  -68.9376 H         1 UNK         0.1032 
     82 H82       -73.1306   29.9534  -69.3630 H         1 UNK         0.1032 
     83 H83       -72.4699   32.1967  -71.3286 H         1 UNK         0.0461 
     84 H84       -69.6863   29.3001  -71.7813 H         1 UNK         0.3453 
     85 H85       -71.3240   29.0503  -72.3382 H         1 UNK         0.3453 
     86 H86       -74.0280   29.8213  -71.7683 H         1 UNK         0.2984 
     87 H87       -74.7198   29.1486  -73.7120 H         1 UNK         0.0554 
     88 H88       -75.6895   30.0393  -75.8260 H         1 UNK         0.0847 
     89 H89       -74.5145   31.3532  -75.8348 H         1 UNK         0.0847 
     90 H90       -75.7243   31.2585  -74.5614 H         1 UNK         0.0847 
     91 H91       -73.4358   29.0862  -76.2010 H         1 UNK         0.3141 
     92 H92       -70.9422   28.0759  -76.3729 H         1 UNK         0.0743 
     93 H93       -71.3741   25.4321  -74.8742 H         1 UNK         0.0784 
     94 H94       -70.2175   25.6808  -76.1827 H         1 UNK         0.0784 
     95 H95       -70.0167   26.5317  -74.6596 H         1 UNK         0.0784 
     96 H96       -73.3745   26.3648  -76.4991 H         1 UNK         0.3213 
     97 H97       -73.8319   27.0436  -79.8656 H         1 UNK         0.0855 
     98 H98       -72.7104   24.2928  -79.0943 H         1 UNK         0.0814 
     99 H99       -72.1185   25.3098  -80.3997 H         1 UNK         0.0814 
    100 H100      -73.7356   24.6350  -80.4896 H         1 UNK         0.0814 
    101 H101      -74.8971   24.9620  -78.1626 H         1 UNK         0.3105 
    102 H102      -77.0849   26.9845  -76.3048 H         1 UNK         0.0547 
    103 H103      -78.3239   26.8502  -78.4866 H         1 UNK         0.0837 
    104 H104      -77.8574   25.1633  -78.6478 H         1 UNK         0.0837 
    105 H105      -78.9097   25.6718  -77.3311 H         1 UNK         0.0837 
    106 H106      -77.1230   24.2170  -76.4028 H         1 UNK         0.3020 
    107 H107      -74.6160   22.9718  -75.1173 H         1 UNK         0.1245 
    108 H108      -73.8699   24.1979  -73.1658 H         1 UNK         0.0781 
    109 H109      -74.7720   22.8096  -72.6557 H         1 UNK         0.0781 
    110 H110      -74.4913   26.5577  -72.9444 H         1 UNK         0.0836 
    111 H111      -74.1643   26.1749  -71.2781 H         1 UNK         0.0836 
    112 H112      -77.4765   23.3011  -74.3577 H         1 UNK         0.3022 
    113 H113      -78.1567   20.0292  -75.5704 H         1 UNK         0.0747 
    114 H114      -79.3652   19.7718  -73.4204 H         1 UNK         0.0793 
    115 H115      -77.6372   19.6060  -73.1573 H         1 UNK         0.0793 
    116 H116      -78.4491   21.1011  -72.7106 H         1 UNK         0.0793 
    117 H117      -79.8856   22.0443  -74.5078 H         1 UNK         0.3047 
    118 H118      -80.5986   23.6315  -77.6242 H         1 UNK         0.0822 
    119 H119      -82.8531   22.9743  -76.8404 H         1 UNK         0.0807 
    120 H120      -82.1560   21.8419  -75.6843 H         1 UNK         0.0807 
    121 H121      -81.9569   21.5751  -77.4079 H         1 UNK         0.0807 
    122 H122      -80.6526   25.2043  -76.1149 H         1 UNK         0.2946 
    123 H123      -81.7453   25.8304  -73.1719 H         1 UNK         0.1144 
    124 H124      -79.6688   26.4438  -71.9081 H         1 UNK         0.0793 
    125 H125      -78.7500   25.2667  -72.8440 H         1 UNK         0.0793 
    126 H126      -80.0207   24.7348  -71.7545 H         1 UNK         0.0793 
    127 H127      -79.3724   26.7906  -74.6882 H         1 UNK         0.2896 
@<TRIPOS>BOND
     1    1    2 1    
     2    1   67 1    
     3    1   68 1    
     4    1   69 1    
     5    2    3 2    
     6    2    4 am   BACKBONE|DICT|INTERRES
     7    4    5 1    
     8    4   70 1    
     9    5    6 1    
    10    5   65 1    
    11    5   71 1    
    12    6    7 1    
    13    6   72 1    
    14    6   73 1    
    15    7    8 1    
    16    8    9 1    
    17    8   74 1    
    18    8   75 1    
    19    9   10 ar   
    20    9   14 ar   
    21   10   11 ar   
    22   10   76 1    
    23   11   12 ar   
    24   11   48 1    
    25   12   13 ar   
    26   12   77 1    
    27   13   14 ar   
    28   13   15 1    
    29   14   78 1    
    30   15   16 1    
    31   15   79 1    
    32   15   80 1    
    33   16   17 1    
    34   17   18 1    
    35   17   81 1    
    36   17   82 1    
    37   18   19 1    
    38   18   22 1    
    39   18   83 1    
    40   19   20 am   BACKBONE|DICT|INTERRES
    41   19   21 2    
    42   20   84 1    
    43   20   85 1    
    44   22   23 am   BACKBONE|DICT|INTERRES
    45   22   86 1    
    46   23   24 2    
    47   23   25 1    
    48   25   26 1    
    49   25   27 1    
    50   25   87 1    
    51   26   88 1    
    52   26   89 1    
    53   26   90 1    
    54   27   28 am   BACKBONE|DICT|INTERRES
    55   27   91 1    
    56   28   29 2    
    57   28   30 1    
    58   30   31 1    
    59   30   32 1    
    60   30   92 1    
    61   31   93 1    
    62   31   94 1    
    63   31   95 1    
    64   32   33 am   BACKBONE|DICT|INTERRES
    65   32   96 1    
    66   33   34 2    
    67   33   35 1    
    68   35   36 1    
    69   35   37 1    
    70   35   97 1    
    71   36   98 1    
    72   36   99 1    
    73   36  100 1    
    74   37   38 am   BACKBONE|DICT|INTERRES
    75   37  101 1    
    76   38   39 2    
    77   38   40 1    
    78   40   41 1    
    79   40   42 1    
    80   40  102 1    
    81   41  103 1    
    82   41  104 1    
    83   41  105 1    
    84   42   43 am   BACKBONE|DICT|INTERRES
    85   42  106 1    
    86   43   44 2    
    87   43   45 1    
    88   45   46 1    
    89   45   49 1    
    90   45  107 1    
    91   46   47 1    
    92   46  108 1    
    93   46  109 1    
    94   47   48 1    
    95   48  110 1    
    96   48  111 1    
    97   49   50 am   BACKBONE|DICT|INTERRES
    98   49  112 1    
    99   50   51 2    
   100   50   52 1    
   101   52   53 1    
   102   52   54 1    
   103   52  113 1    
   104   53  114 1    
   105   53  115 1    
   106   53  116 1    
   107   54   55 am   BACKBONE|DICT|INTERRES
   108   54  117 1    
   109   55   56 2    
   110   55   57 1    
   111   57   58 1    
   112   57   59 1    
   113   57  118 1    
   114   58  119 1    
   115   58  120 1    
   116   58  121 1    
   117   59   60 am   BACKBONE|DICT|INTERRES
   118   59  122 1    
   119   60   61 2    
   120   60   62 1    
   121   62   63 1    
   122   62   64 1    
   123   62  123 1    
   124   63  124 1    
   125   63  125 1    
   126   63  126 1    
   127   64   65 am   BACKBONE|DICT|INTERRES
   128   64  127 1    
   129   65   66 2    
@<TRIPOS>SUBSTRUCTURE
     1 UNK         1 GROUP             0       ****    0 ROOT    
