@<TRIPOS>MOLECULE
3R135
127   129    1
SMALL
USER_CHARGES


@<TRIPOS>ATOM
      1 CA        -84.1989   24.7121  -72.4707 C.3       0 UNK        -0.1998 
      2 C         -83.6995   26.0726  -72.9338 C.2       0 UNK         0.4909 
      3 O         -84.5055   26.9581  -73.2215 O.2       0 UNK        -0.5240 
      4 N         -82.3777   26.2425  -73.0122 N.am      1 UNK        -0.4739 
      5 CA        -81.6981   27.4628  -73.4438 C.3       1 UNK         0.0864 
      6 C6        -81.5817   28.5272  -72.3191 C.3       11 UNK        -0.0881 
      7 S7        -80.8714   27.9057  -70.7527 S.3       11 UNK        -0.2682 
      8 C8        -79.6108   29.1642  -70.3785 C.3       11 UNK         0.0289 
      9 C9        -78.3488   28.9978  -71.2136 C.ar      11 UNK        -0.0687 
     10 C10       -77.5186   27.8919  -71.0107 C.ar      11 UNK        -0.0823 
     11 C11       -76.3250   27.7538  -71.7253 C.ar      11 UNK        -0.0830 
     12 C12       -75.9602   28.7372  -72.6496 C.ar      11 UNK        -0.1021 
     13 C13       -76.7721   29.8603  -72.8455 C.ar      11 UNK        -0.0753 
     14 C14       -77.9737   29.9759  -72.1392 C.ar      11 UNK        -0.0933 
     15 C15       -76.3365   30.9671  -73.7956 C.3       11 UNK         0.0166 
     16 S16       -75.7811   32.4636  -72.9128 S.3       11 UNK        -0.2615 
     17 C17       -74.2962   31.8637  -72.0378 C.3       11 UNK        -0.0865 
     18 CA        -73.0294   31.8475  -72.9391 C.3       10 UNK         0.0862 
     19 C         -72.2249   33.1797  -72.8526 C.2       10 UNK         0.5551 
     20 N         -70.9803   33.1738  -72.3900 N.am      10 UNK        -0.7319 
     21 O         -72.7342   34.2354  -73.2195 O.2       10 UNK        -0.5018 
     22 N         -72.2388   30.6276  -72.7056 N.am      10 UNK        -0.4509 
     23 C         -71.3967   30.0818  -73.5916 C.2       10 UNK         0.4899 
     24 O         -71.1709   30.5608  -74.7045 O.2       10 UNK        -0.4839 
     25 CA        -70.6611   28.7920  -73.1722 C.3       9 UNK         0.0222 
     26 CB        -71.1301   28.1916  -71.8251 C.3       9 UNK        -0.1966 
     27 N         -70.7009   27.7843  -74.2387 N.am      9 UNK        -0.4218 
     28 C         -71.7938   27.2032  -74.7545 C.2       9 UNK         0.5020 
     29 O         -72.9414   27.3835  -74.3377 O.2       9 UNK        -0.5274 
     30 CA        -71.5445   26.2182  -75.9090 C.3       8 UNK         0.0270 
     31 CB        -71.1374   24.8413  -75.3592 C.3       8 UNK        -0.1976 
     32 N         -72.7402   26.0793  -76.7439 N.am      8 UNK        -0.4313 
     33 C         -73.1237   26.9852  -77.6564 C.2       8 UNK         0.5041 
     34 O         -72.4325   27.9581  -77.9660 O.2       8 UNK        -0.5577 
     35 CA        -74.5071   26.8155  -78.3208 C.3       7 UNK         0.0284 
     36 CB        -74.5126   27.2465  -79.8030 C.3       7 UNK        -0.1958 
     37 N         -75.1085   25.4888  -78.1539 N.am      7 UNK        -0.4454 
     38 C         -74.6788   24.3152  -78.6405 C.2       7 UNK         0.5089 
     39 O         -73.6973   24.1900  -79.3744 O.2       7 UNK        -0.5125 
     40 CA        -75.4772   23.0706  -78.1948 C.3       6 UNK         0.0408 
     41 CB        -74.7004   21.7542  -78.4041 C.3       6 UNK        -0.1791 
     42 N         -75.9648   23.1689  -76.8115 N.am      6 UNK        -0.4762 
     43 C         -75.2272   23.3673  -75.7054 C.2       6 UNK         0.5007 
     44 O         -73.9994   23.4384  -75.7263 O.2       6 UNK        -0.5032 
     45 CA        -75.9587   23.5613  -74.3591 C.3       5 UNK         0.0783 
     46 C46       -75.5470   24.9000  -73.6953 C.3       11 UNK        -0.0857 
     47 S47       -76.1345   24.9942  -71.9751 S.3       11 UNK        -0.2512 
     48 C48       -75.4065   26.5738  -71.4418 C.3       11 UNK         0.0225 
     49 N         -77.4133   23.4701  -74.5087 N.am      5 UNK        -0.4615 
     50 C         -78.1293   22.3403  -74.4766 C.2       4 UNK         0.5053 
     51 O         -77.6530   21.2314  -74.2357 O.2       4 UNK        -0.5105 
     52 CA        -79.6253   22.4682  -74.8137 C.3       4 UNK         0.0263 
     53 CB        -80.4614   22.6278  -73.5334 C.3       4 UNK        -0.1981 
     54 N         -79.8922   23.5870  -75.7255 N.am      4 UNK        -0.4224 
     55 C         -79.5706   23.5831  -77.0291 C.2       3 UNK         0.4895 
     56 O         -79.0660   22.6177  -77.6017 O.2       3 UNK        -0.5091 
     57 CA        -79.8033   24.8793  -77.8252 C.3       3 UNK         0.0250 
     58 CB        -81.2082   24.8822  -78.4481 C.3       3 UNK        -0.1996 
     59 N         -79.6214   26.0960  -77.0309 N.am      3 UNK        -0.4254 
     60 C         -78.4658   26.4867  -76.4739 C.2       2 UNK         0.5004 
     61 O         -77.4048   25.8786  -76.6013 O.2       2 UNK        -0.5226 
     62 CA        -78.5083   27.7483  -75.5957 C.3       2 UNK         0.0269 
     63 CB        -78.2003   28.9839  -76.4550 C.3       2 UNK        -0.1926 
     64 N         -79.7851   27.9477  -74.8967 N.am      2 UNK        -0.4687 
     65 C         -80.3424   27.0682  -74.0511 C.2       1 UNK         0.5165 
     66 O         -79.8508   25.9658  -73.7905 O.2       1 UNK        -0.5079 
     67 H67       -84.8236   24.8237  -71.5849 H         1 UNK         0.0900 
     68 H68       -84.7961   24.2450  -73.2532 H         1 UNK         0.0900 
     69 H69       -83.3777   24.0397  -72.2228 H         1 UNK         0.0900 
     70 H70       -81.7398   25.4873  -72.7938 H         1 UNK         0.2959 
     71 H71       -82.2815   27.8960  -74.2597 H         1 UNK         0.1079 
     72 H72       -82.5762   28.9135  -72.0911 H         1 UNK         0.0837 
     73 H73       -81.0122   29.3899  -72.6691 H         1 UNK         0.0837 
     74 H74       -79.3442   29.0833  -69.3238 H         1 UNK         0.0685 
     75 H75       -80.0404   30.1592  -70.5054 H         1 UNK         0.0685 
     76 H76       -77.7980   27.1402  -70.2849 H         1 UNK         0.1434 
     77 H77       -75.0279   28.6457  -73.1915 H         1 UNK         0.1329 
     78 H78       -78.5958   30.8482  -72.2858 H         1 UNK         0.1335 
     79 H79       -77.1746   31.2479  -74.4324 H         1 UNK         0.0680 
     80 H80       -75.5450   30.6195  -74.4615 H         1 UNK         0.0680 
     81 H81       -74.5143   30.8705  -71.6459 H         1 UNK         0.1032 
     82 H82       -74.1434   32.4799  -71.1495 H         1 UNK         0.1032 
     83 H83       -73.3617   31.7863  -73.9773 H         1 UNK         0.0461 
     84 H84       -70.5506   32.3134  -72.0914 H         1 UNK         0.3453 
     85 H85       -70.4661   34.0394  -72.3425 H         1 UNK         0.3453 
     86 H86       -72.3464   30.1856  -71.8051 H         1 UNK         0.2984 
     87 H87       -69.6121   29.0689  -73.0577 H         1 UNK         0.0554 
     88 H88       -70.9483   28.8790  -70.9981 H         1 UNK         0.0847 
     89 H89       -70.5856   27.2754  -71.5960 H         1 UNK         0.0847 
     90 H90       -72.1928   27.9468  -71.8290 H         1 UNK         0.0847 
     91 H91       -69.8099   27.5786  -74.6691 H         1 UNK         0.3141 
     92 H92       -70.7293   26.5971  -76.5293 H         1 UNK         0.0743 
     93 H93       -70.1705   24.8915  -74.8572 H         1 UNK         0.0784 
     94 H94       -71.0516   24.1018  -76.1558 H         1 UNK         0.0784 
     95 H95       -71.8582   24.4685  -74.6306 H         1 UNK         0.0784 
     96 H96       -73.3558   25.3052  -76.5221 H         1 UNK         0.3213 
     97 H97       -75.1678   27.4979  -77.7841 H         1 UNK         0.0855 
     98 H98       -73.8136   26.6591  -80.3987 H         1 UNK         0.0814 
     99 H99       -74.2252   28.2934  -79.9077 H         1 UNK         0.0814 
    100 H100      -75.5037   27.1400  -80.2439 H         1 UNK         0.0814 
    101 H101      -75.9346   25.4742  -77.5540 H         1 UNK         0.3105 
    102 H102      -76.3649   23.0363  -78.8279 H         1 UNK         0.0547 
    103 H103      -75.2909   20.8920  -78.0950 H         1 UNK         0.0837 
    104 H104      -73.7664   21.7412  -77.8414 H         1 UNK         0.0837 
    105 H105      -74.4476   21.6120  -79.4554 H         1 UNK         0.0837 
    106 H106      -76.9707   23.1441  -76.7054 H         1 UNK         0.3020 
    107 H107      -75.6174   22.7467  -73.7161 H         1 UNK         0.1245 
    108 H108      -75.9325   25.7544  -74.2547 H         1 UNK         0.0781 
    109 H109      -74.4606   25.0099  -73.6769 H         1 UNK         0.0781 
    110 H110      -74.4317   26.7115  -71.9126 H         1 UNK         0.0836 
    111 H111      -75.2188   26.5256  -70.3683 H         1 UNK         0.0836 
    112 H112      -77.8907   24.3408  -74.6980 H         1 UNK         0.3022 
    113 H113      -79.9351   21.5442  -75.3069 H         1 UNK         0.0747 
    114 H114      -81.5229   22.7277  -73.7601 H         1 UNK         0.0793 
    115 H115      -80.3487   21.7556  -72.8881 H         1 UNK         0.0793 
    116 H116      -80.1546   23.4982  -72.9529 H         1 UNK         0.0793 
    117 H117      -80.2355   24.4417  -75.3047 H         1 UNK         0.3047 
    118 H118      -79.0696   24.9009  -78.6342 H         1 UNK         0.0822 
    119 H119      -81.3567   25.7512  -79.0895 H         1 UNK         0.0807 
    120 H120      -81.9893   24.8879  -77.6867 H         1 UNK         0.0807 
    121 H121      -81.3623   23.9965  -79.0664 H         1 UNK         0.0807 
    122 H122      -80.4388   26.6681  -76.8779 H         1 UNK         0.2946 
    123 H123      -77.7320   27.6454  -74.8337 H         1 UNK         0.1144 
    124 H124      -78.2579   29.9009  -75.8725 H         1 UNK         0.0793 
    125 H125      -78.8967   29.0808  -77.2890 H         1 UNK         0.0793 
    126 H126      -77.1948   28.9260  -76.8740 H         1 UNK         0.0793 
    127 H127      -80.2541   28.8261  -75.0658 H         1 UNK         0.2896 
@<TRIPOS>BOND
     1    1    2 1    
     2    1   67 1    
     3    1   68 1    
     4    1   69 1    
     5    2    3 2    
     6    2    4 am   BACKBONE|DICT|INTERRES
     7    4    5 1    
     8    4   70 1    
     9    5    6 1    
    10    5   65 1    
    11    5   71 1    
    12    6    7 1    
    13    6   72 1    
    14    6   73 1    
    15    7    8 1    
    16    8    9 1    
    17    8   74 1    
    18    8   75 1    
    19    9   10 ar   
    20    9   14 ar   
    21   10   11 ar   
    22   10   76 1    
    23   11   12 ar   
    24   11   48 1    
    25   12   13 ar   
    26   12   77 1    
    27   13   14 ar   
    28   13   15 1    
    29   14   78 1    
    30   15   16 1    
    31   15   79 1    
    32   15   80 1    
    33   16   17 1    
    34   17   18 1    
    35   17   81 1    
    36   17   82 1    
    37   18   19 1    
    38   18   22 1    
    39   18   83 1    
    40   19   20 am   BACKBONE|DICT|INTERRES
    41   19   21 2    
    42   20   84 1    
    43   20   85 1    
    44   22   23 am   BACKBONE|DICT|INTERRES
    45   22   86 1    
    46   23   24 2    
    47   23   25 1    
    48   25   26 1    
    49   25   27 1    
    50   25   87 1    
    51   26   88 1    
    52   26   89 1    
    53   26   90 1    
    54   27   28 am   BACKBONE|DICT|INTERRES
    55   27   91 1    
    56   28   29 2    
    57   28   30 1    
    58   30   31 1    
    59   30   32 1    
    60   30   92 1    
    61   31   93 1    
    62   31   94 1    
    63   31   95 1    
    64   32   33 am   BACKBONE|DICT|INTERRES
    65   32   96 1    
    66   33   34 2    
    67   33   35 1    
    68   35   36 1    
    69   35   37 1    
    70   35   97 1    
    71   36   98 1    
    72   36   99 1    
    73   36  100 1    
    74   37   38 am   BACKBONE|DICT|INTERRES
    75   37  101 1    
    76   38   39 2    
    77   38   40 1    
    78   40   41 1    
    79   40   42 1    
    80   40  102 1    
    81   41  103 1    
    82   41  104 1    
    83   41  105 1    
    84   42   43 am   BACKBONE|DICT|INTERRES
    85   42  106 1    
    86   43   44 2    
    87   43   45 1    
    88   45   46 1    
    89   45   49 1    
    90   45  107 1    
    91   46   47 1    
    92   46  108 1    
    93   46  109 1    
    94   47   48 1    
    95   48  110 1    
    96   48  111 1    
    97   49   50 am   BACKBONE|DICT|INTERRES
    98   49  112 1    
    99   50   51 2    
   100   50   52 1    
   101   52   53 1    
   102   52   54 1    
   103   52  113 1    
   104   53  114 1    
   105   53  115 1    
   106   53  116 1    
   107   54   55 am   BACKBONE|DICT|INTERRES
   108   54  117 1    
   109   55   56 2    
   110   55   57 1    
   111   57   58 1    
   112   57   59 1    
   113   57  118 1    
   114   58  119 1    
   115   58  120 1    
   116   58  121 1    
   117   59   60 am   BACKBONE|DICT|INTERRES
   118   59  122 1    
   119   60   61 2    
   120   60   62 1    
   121   62   63 1    
   122   62   64 1    
   123   62  123 1    
   124   63  124 1    
   125   63  125 1    
   126   63  126 1    
   127   64   65 am   BACKBONE|DICT|INTERRES
   128   64  127 1    
   129   65   66 2    
@<TRIPOS>SUBSTRUCTURE
     1 UNK         1 GROUP             0       ****    0 ROOT    
