@<TRIPOS>MOLECULE
3R135
127   129    1
SMALL
USER_CHARGES


@<TRIPOS>ATOM
      1 CA        -81.8807   28.3564  -75.5871 C.3       0 UNK        -0.1998 
      2 C         -81.1145   27.3580  -74.7338 C.2       0 UNK         0.4909 
      3 O         -80.1021   26.8182  -75.1837 O.2       0 UNK        -0.5240 
      4 N         -81.5834   27.1128  -73.5020 N.am      1 UNK        -0.4739 
      5 CA        -80.9717   26.1742  -72.5507 C.3       1 UNK         0.0864 
      6 C6        -81.5807   26.2595  -71.1304 C.3       11 UNK        -0.0881 
      7 S7        -81.7090   27.9619  -70.4875 S.3       11 UNK        -0.2682 
      8 C8        -80.0618   28.2247  -69.7489 C.3       11 UNK         0.0289 
      9 C9        -78.9931   28.6706  -70.7458 C.ar      11 UNK        -0.0687 
     10 C10       -79.2670   29.6430  -71.7166 C.ar      11 UNK        -0.0823 
     11 C11       -78.2615   30.1186  -72.5655 C.ar      11 UNK        -0.0830 
     12 C12       -76.9626   29.6190  -72.4218 C.ar      11 UNK        -0.1021 
     13 C13       -76.6743   28.6412  -71.4665 C.ar      11 UNK        -0.0753 
     14 C14       -77.6934   28.1658  -70.6365 C.ar      11 UNK        -0.0933 
     15 C15       -75.2494   28.1363  -71.3107 C.3       11 UNK         0.0166 
     16 S16       -74.2580   29.3334  -70.3651 S.3       11 UNK        -0.2615 
     17 C17       -72.5784   28.6353  -70.5026 C.3       11 UNK        -0.0865 
     18 CA        -71.7382   29.3445  -71.5989 C.3       10 UNK         0.0862 
     19 C         -70.2240   28.9988  -71.4674 C.2       10 UNK         0.5551 
     20 N         -69.5624   28.4453  -72.4774 N.am      10 UNK        -0.7319 
     21 O         -69.6313   29.2485  -70.4207 O.2       10 UNK        -0.5018 
     22 N         -72.3019   29.0979  -72.9335 N.am      10 UNK        -0.4509 
     23 C         -72.1326   29.8716  -74.0121 C.2       10 UNK         0.4899 
     24 O         -71.5582   30.9611  -73.9939 O.2       10 UNK        -0.4839 
     25 CA        -72.6946   29.3073  -75.3347 C.3       9 UNK         0.0222 
     26 CB        -72.0437   29.9371  -76.5833 C.3       9 UNK        -0.1966 
     27 N         -72.6380   27.8385  -75.4015 N.am      9 UNK        -0.4218 
     28 C         -71.5423   27.0684  -75.3009 C.2       9 UNK         0.5020 
     29 O         -70.4003   27.5106  -75.1723 O.2       9 UNK        -0.5274 
     30 CA        -71.7535   25.5504  -75.2880 C.3       8 UNK         0.0270 
     31 CB        -72.1108   25.0745  -73.8684 C.3       8 UNK        -0.1976 
     32 N         -72.8046   25.1383  -76.2215 N.am      8 UNK        -0.4313 
     33 C         -72.5902   24.4143  -77.3272 C.2       8 UNK         0.5041 
     34 O         -71.4785   24.0328  -77.6972 O.2       8 UNK        -0.5577 
     35 CA        -73.8215   24.0224  -78.1573 C.3       7 UNK         0.0284 
     36 CB        -74.5090   22.7877  -77.5508 C.3       7 UNK        -0.1958 
     37 N         -74.8013   25.0985  -78.3095 N.am      7 UNK        -0.4454 
     38 C         -74.6344   26.1775  -79.0872 C.2       7 UNK         0.5089 
     39 O         -73.5912   26.4385  -79.6866 O.2       7 UNK        -0.5125 
     40 CA        -75.8464   27.1083  -79.2455 C.3       6 UNK         0.0408 
     41 CB        -76.8832   26.4873  -80.1964 C.3       6 UNK        -0.1791 
     42 N         -76.4753   27.3808  -77.9543 N.am      6 UNK        -0.4762 
     43 C         -76.2274   28.4622  -77.2016 C.2       6 UNK         0.5007 
     44 O         -75.5000   29.3886  -77.5587 O.2       6 UNK        -0.5032 
     45 CA        -76.8774   28.5115  -75.8012 C.3       5 UNK         0.0783 
     46 C46       -78.1028   29.4620  -75.7598 C.3       11 UNK        -0.0857 
     47 S47       -77.6598   31.1230  -75.1545 S.3       11 UNK        -0.2512 
     48 C48       -78.5964   31.2101  -73.5847 C.3       11 UNK         0.0225 
     49 N         -77.1926   27.1802  -75.2704 N.am      5 UNK        -0.4615 
     50 C         -76.2580   26.2924  -74.9074 C.2       4 UNK         0.5053 
     51 O         -75.0486   26.5055  -74.9971 O.2       4 UNK        -0.5105 
     52 CA        -76.7260   24.9221  -74.4015 C.3       4 UNK         0.0263 
     53 CB        -76.8902   24.9557  -72.8747 C.3       4 UNK        -0.1981 
     54 N         -77.9545   24.4201  -75.0264 N.am      4 UNK        -0.4224 
     55 C         -78.1205   24.2078  -76.3443 C.2       3 UNK         0.4895 
     56 O         -77.2874   24.5439  -77.1867 O.2       3 UNK        -0.5091 
     57 CA        -79.3959   23.4976  -76.8307 C.3       3 UNK         0.0250 
     58 CB        -79.0524   22.1874  -77.5627 C.3       3 UNK        -0.1996 
     59 N         -80.3342   23.2233  -75.7447 N.am      3 UNK        -0.4254 
     60 C         -81.6662   23.2527  -75.8395 C.2       2 UNK         0.5004 
     61 O         -82.2835   23.3843  -76.8968 O.2       2 UNK        -0.5226 
     62 CA        -82.4404   23.1831  -74.5120 C.3       2 UNK         0.0269 
     63 CB        -82.2047   21.8583  -73.7565 C.3       2 UNK        -0.1926 
     64 N         -82.1762   24.3634  -73.6759 N.am      2 UNK        -0.4687 
     65 C         -81.0285   24.7274  -73.0794 C.2       1 UNK         0.5165 
     66 O         -80.0254   24.0143  -73.0171 O.2       1 UNK        -0.5079 
     67 H67       -82.7825   28.7106  -75.0883 H         1 UNK         0.0900 
     68 H68       -82.1734   27.8939  -76.5292 H         1 UNK         0.0900 
     69 H69       -81.2553   29.2197  -75.8110 H         1 UNK         0.0900 
     70 H70       -82.3969   27.6083  -73.1650 H         1 UNK         0.2959 
     71 H71       -79.9169   26.4460  -72.4753 H         1 UNK         0.1079 
     72 H72       -82.5891   25.8406  -71.1224 H         1 UNK         0.0837 
     73 H73       -81.0015   25.6544  -70.4301 H         1 UNK         0.0837 
     74 H74       -80.1519   29.0005  -68.9876 H         1 UNK         0.0685 
     75 H75       -79.7538   27.3194  -69.2238 H         1 UNK         0.0685 
     76 H76       -80.2654   30.0509  -71.7942 H         1 UNK         0.1434 
     77 H77       -76.1626   30.0052  -73.0371 H         1 UNK         0.1329 
     78 H78       -77.4637   27.4289  -69.8790 H         1 UNK         0.1335 
     79 H79       -75.2344   27.1705  -70.8034 H         1 UNK         0.0680 
     80 H80       -74.8114   27.9790  -72.2969 H         1 UNK         0.0680 
     81 H81       -72.6281   27.5595  -70.6804 H         1 UNK         0.1032 
     82 H82       -72.1094   28.7537  -69.5237 H         1 UNK         0.1032 
     83 H83       -71.8006   30.4185  -71.4124 H         1 UNK         0.0461 
     84 H84       -68.5832   28.2390  -72.3617 H         1 UNK         0.3453 
     85 H85       -70.0116   28.2460  -73.3644 H         1 UNK         0.3453 
     86 H86       -72.7708   28.2147  -73.0568 H         1 UNK         0.2984 
     87 H87       -73.7517   29.5730  -75.3465 H         1 UNK         0.0554 
     88 H88       -72.4782   29.5350  -77.4987 H         1 UNK         0.0847 
     89 H89       -70.9683   29.7597  -76.6140 H         1 UNK         0.0847 
     90 H90       -72.1969   31.0167  -76.6024 H         1 UNK         0.0847 
     91 H91       -73.5422   27.3691  -75.4120 H         1 UNK         0.3141 
     92 H92       -70.7996   25.0926  -75.5585 H         1 UNK         0.0743 
     93 H93       -73.0557   25.4915  -73.5191 H         1 UNK         0.0784 
     94 H94       -72.1923   23.9883  -73.8277 H         1 UNK         0.0784 
     95 H95       -71.3405   25.3673  -73.1533 H         1 UNK         0.0784 
     96 H96       -73.7496   25.4352  -76.0005 H         1 UNK         0.3213 
     97 H97       -73.4696   23.7512  -79.1552 H         1 UNK         0.0855 
     98 H98       -74.9036   22.9913  -76.5550 H         1 UNK         0.0814 
     99 H99       -73.8095   21.9555  -77.4610 H         1 UNK         0.0814 
    100 H100      -75.3372   22.4490  -78.1737 H         1 UNK         0.0814 
    101 H101      -75.7126   24.9433  -77.8793 H         1 UNK         0.3105 
    102 H102      -75.4986   28.0395  -79.6980 H         1 UNK         0.0547 
    103 H103      -76.4396   26.2725  -81.1696 H         1 UNK         0.0837 
    104 H104      -77.2860   25.5511  -79.8080 H         1 UNK         0.0837 
    105 H105      -77.7196   27.1655  -80.3652 H         1 UNK         0.0837 
    106 H106      -77.0474   26.6409  -77.5639 H         1 UNK         0.3020 
    107 H107      -76.1078   28.9140  -75.1406 H         1 UNK         0.1245 
    108 H108      -78.8607   29.0703  -75.0856 H         1 UNK         0.0781 
    109 H109      -78.5961   29.5471  -76.7302 H         1 UNK         0.0781 
    110 H110      -79.6607   31.1855  -73.8247 H         1 UNK         0.0836 
    111 H111      -78.4088   32.1805  -73.1236 H         1 UNK         0.0836 
    112 H112      -78.1776   26.9342  -75.1970 H         1 UNK         0.3022 
    113 H113      -75.9358   24.2069  -74.6368 H         1 UNK         0.0747 
    114 H114      -77.1690   23.9780  -72.4813 H         1 UNK         0.0793 
    115 H115      -75.9571   25.2445  -72.3893 H         1 UNK         0.0793 
    116 H116      -77.6520   25.6719  -72.5666 H         1 UNK         0.0793 
    117 H117      -78.7082   24.2091  -74.3821 H         1 UNK         0.3047 
    118 H118      -79.8660   24.1818  -77.5406 H         1 UNK         0.0822 
    119 H119      -79.9446   21.7212  -77.9809 H         1 UNK         0.0807 
    120 H120      -78.5788   21.4672  -76.8945 H         1 UNK         0.0807 
    121 H121      -78.3651   22.3670  -78.3907 H         1 UNK         0.0807 
    122 H122      -79.9492   23.1311  -74.8123 H         1 UNK         0.2946 
    123 H123      -83.5011   23.2242  -74.7671 H         1 UNK         0.1144 
    124 H124      -82.8064   21.8116  -72.8489 H         1 UNK         0.0793 
    125 H125      -81.1628   21.7139  -73.4715 H         1 UNK         0.0793 
    126 H126      -82.4883   21.0066  -74.3759 H         1 UNK         0.0793 
    127 H127      -82.9099   25.0587  -73.6903 H         1 UNK         0.2896 
@<TRIPOS>BOND
     1    1    2 1    
     2    1   67 1    
     3    1   68 1    
     4    1   69 1    
     5    2    3 2    
     6    2    4 am   BACKBONE|DICT|INTERRES
     7    4    5 1    
     8    4   70 1    
     9    5    6 1    
    10    5   65 1    
    11    5   71 1    
    12    6    7 1    
    13    6   72 1    
    14    6   73 1    
    15    7    8 1    
    16    8    9 1    
    17    8   74 1    
    18    8   75 1    
    19    9   10 ar   
    20    9   14 ar   
    21   10   11 ar   
    22   10   76 1    
    23   11   12 ar   
    24   11   48 1    
    25   12   13 ar   
    26   12   77 1    
    27   13   14 ar   
    28   13   15 1    
    29   14   78 1    
    30   15   16 1    
    31   15   79 1    
    32   15   80 1    
    33   16   17 1    
    34   17   18 1    
    35   17   81 1    
    36   17   82 1    
    37   18   19 1    
    38   18   22 1    
    39   18   83 1    
    40   19   20 am   BACKBONE|DICT|INTERRES
    41   19   21 2    
    42   20   84 1    
    43   20   85 1    
    44   22   23 am   BACKBONE|DICT|INTERRES
    45   22   86 1    
    46   23   24 2    
    47   23   25 1    
    48   25   26 1    
    49   25   27 1    
    50   25   87 1    
    51   26   88 1    
    52   26   89 1    
    53   26   90 1    
    54   27   28 am   BACKBONE|DICT|INTERRES
    55   27   91 1    
    56   28   29 2    
    57   28   30 1    
    58   30   31 1    
    59   30   32 1    
    60   30   92 1    
    61   31   93 1    
    62   31   94 1    
    63   31   95 1    
    64   32   33 am   BACKBONE|DICT|INTERRES
    65   32   96 1    
    66   33   34 2    
    67   33   35 1    
    68   35   36 1    
    69   35   37 1    
    70   35   97 1    
    71   36   98 1    
    72   36   99 1    
    73   36  100 1    
    74   37   38 am   BACKBONE|DICT|INTERRES
    75   37  101 1    
    76   38   39 2    
    77   38   40 1    
    78   40   41 1    
    79   40   42 1    
    80   40  102 1    
    81   41  103 1    
    82   41  104 1    
    83   41  105 1    
    84   42   43 am   BACKBONE|DICT|INTERRES
    85   42  106 1    
    86   43   44 2    
    87   43   45 1    
    88   45   46 1    
    89   45   49 1    
    90   45  107 1    
    91   46   47 1    
    92   46  108 1    
    93   46  109 1    
    94   47   48 1    
    95   48  110 1    
    96   48  111 1    
    97   49   50 am   BACKBONE|DICT|INTERRES
    98   49  112 1    
    99   50   51 2    
   100   50   52 1    
   101   52   53 1    
   102   52   54 1    
   103   52  113 1    
   104   53  114 1    
   105   53  115 1    
   106   53  116 1    
   107   54   55 am   BACKBONE|DICT|INTERRES
   108   54  117 1    
   109   55   56 2    
   110   55   57 1    
   111   57   58 1    
   112   57   59 1    
   113   57  118 1    
   114   58  119 1    
   115   58  120 1    
   116   58  121 1    
   117   59   60 am   BACKBONE|DICT|INTERRES
   118   59  122 1    
   119   60   61 2    
   120   60   62 1    
   121   62   63 1    
   122   62   64 1    
   123   62  123 1    
   124   63  124 1    
   125   63  125 1    
   126   63  126 1    
   127   64   65 am   BACKBONE|DICT|INTERRES
   128   64  127 1    
   129   65   66 2    
@<TRIPOS>SUBSTRUCTURE
     1 UNK         1 GROUP             0       ****    0 ROOT    
