@<TRIPOS>MOLECULE
3R135
127   129    1
SMALL
USER_CHARGES


@<TRIPOS>ATOM
      1 CA        -77.4330   25.3003  -72.5421 C.3       0 UNK        -0.1998 
      2 C         -78.9416   25.1335  -72.6200 C.2       0 UNK         0.4909 
      3 O         -79.4434   24.4030  -73.4791 O.2       0 UNK        -0.5240 
      4 N         -79.6455   25.8024  -71.7006 N.am      1 UNK        -0.4739 
      5 CA        -81.0897   25.7769  -71.4554 C.3       1 UNK         0.0864 
      6 C6        -81.4938   26.5818  -70.1777 C.3       11 UNK        -0.0881 
      7 S7        -80.2266   26.6521  -68.8559 S.3       11 UNK        -0.2682 
      8 C8        -79.6409   28.3784  -68.9957 C.3       11 UNK         0.0289 
      9 C9        -78.7861   28.6144  -70.2373 C.ar      11 UNK        -0.0687 
     10 C10       -79.3841   28.9551  -71.4555 C.ar      11 UNK        -0.0823 
     11 C11       -78.6115   29.1501  -72.6042 C.ar      11 UNK        -0.0830 
     12 C12       -77.2211   29.0598  -72.5156 C.ar      11 UNK        -0.1021 
     13 C13       -76.6064   28.7491  -71.2991 C.ar      11 UNK        -0.0753 
     14 C14       -77.3930   28.5132  -70.1666 C.ar      11 UNK        -0.0933 
     15 C15       -75.0914   28.6850  -71.2121 C.3       11 UNK         0.0166 
     16 S16       -74.4002   30.3501  -70.9568 S.3       11 UNK        -0.2615 
     17 C17       -73.0768   30.3804  -72.2106 C.3       11 UNK        -0.0865 
     18 CA        -73.5947   30.7674  -73.6307 C.3       10 UNK         0.0862 
     19 C         -73.6960   32.3016  -73.8922 C.2       10 UNK         0.5551 
     20 N         -74.0560   33.0889  -72.8881 N.am      10 UNK        -0.7319 
     21 O         -73.5026   32.7833  -75.0073 O.2       10 UNK        -0.5018 
     22 N         -72.8772   30.0271  -74.6755 N.am      10 UNK        -0.4509 
     23 C         -71.5738   30.1354  -74.9651 C.2       10 UNK         0.4899 
     24 O         -70.8057   30.9354  -74.4271 O.2       10 UNK        -0.4839 
     25 CA        -71.0447   29.1190  -75.9939 C.3       9 UNK         0.0222 
     26 CB        -69.5166   29.1891  -76.1966 C.3       9 UNK        -0.1966 
     27 N         -71.4710   27.7548  -75.6590 N.am      9 UNK        -0.4218 
     28 C         -71.2185   27.0666  -74.5328 C.2       9 UNK         0.5020 
     29 O         -70.4829   27.4634  -73.6280 O.2       9 UNK        -0.5274 
     30 CA        -71.9329   25.7126  -74.3623 C.3       8 UNK         0.0270 
     31 CB        -73.1006   25.8548  -73.3703 C.3       8 UNK        -0.1976 
     32 N         -72.4480   25.1640  -75.6181 N.am      8 UNK        -0.4313 
     33 C         -71.6969   24.6593  -76.6059 C.2       8 UNK         0.5041 
     34 O         -70.4761   24.5136  -76.5365 O.2       8 UNK        -0.5577 
     35 CA        -72.4317   24.2979  -77.9066 C.3       7 UNK         0.0284 
     36 CB        -73.0773   22.9068  -77.8059 C.3       7 UNK        -0.1958 
     37 N         -73.4488   25.2926  -78.2623 N.am      7 UNK        -0.4454 
     38 C         -73.1813   26.5300  -78.7042 C.2       7 UNK         0.5089 
     39 O         -72.0438   26.9658  -78.8759 O.2       7 UNK        -0.5125 
     40 CA        -74.3853   27.4459  -78.9808 C.3       6 UNK         0.0408 
     41 CB        -74.9003   27.2404  -80.4139 C.3       6 UNK        -0.1791 
     42 N         -75.4827   27.2444  -78.0317 N.am      6 UNK        -0.4762 
     43 C         -75.4582   27.6429  -76.7515 C.2       6 UNK         0.5007 
     44 O         -74.5111   28.2377  -76.2340 O.2       6 UNK        -0.5032 
     45 CA        -76.6883   27.2811  -75.8948 C.3       5 UNK         0.0783 
     46 C46       -77.8043   28.3353  -76.0936 C.3       11 UNK        -0.0857 
     47 S47       -79.2799   28.0337  -75.0613 S.3       11 UNK        -0.2512 
     48 C48       -79.2838   29.4682  -73.9328 C.3       11 UNK         0.0225 
     49 N         -77.1606   25.9036  -76.1169 N.am      5 UNK        -0.4615 
     50 C         -76.4159   24.8019  -75.9455 C.2       4 UNK         0.5053 
     51 O         -75.2292   24.8399  -75.6235 O.2       4 UNK        -0.5105 
     52 CA        -77.0751   23.4364  -76.1882 C.3       4 UNK         0.0263 
     53 CB        -76.5041   22.3319  -75.2762 C.3       4 UNK        -0.1981 
     54 N         -78.5334   23.4675  -76.0389 N.am      4 UNK        -0.4224 
     55 C         -79.3782   22.8910  -76.9054 C.2       3 UNK         0.4895 
     56 O         -79.0276   22.4186  -77.9878 O.2       3 UNK        -0.5091 
     57 CA        -80.8566   22.7822  -76.5116 C.3       3 UNK         0.0250 
     58 CB        -81.1132   21.4577  -75.7719 C.3       3 UNK        -0.1996 
     59 N         -81.3239   23.8945  -75.6800 N.am      3 UNK        -0.4254 
     60 C         -82.4617   24.5697  -75.9048 C.2       2 UNK         0.5004 
     61 O         -83.1808   24.3831  -76.8883 O.2       2 UNK        -0.5226 
     62 CA        -82.8965   25.6007  -74.8498 C.3       2 UNK         0.0269 
     63 CB        -84.4284   25.6797  -74.6919 C.3       2 UNK        -0.1926 
     64 N         -82.2830   25.3197  -73.5513 N.am      2 UNK        -0.4687 
     65 C         -81.8711   26.2599  -72.6970 C.2       1 UNK         0.5165 
     66 O         -82.0623   27.4646  -72.8747 O.2       1 UNK        -0.5079 
     67 H67       -77.1083   25.5003  -71.5210 H         1 UNK         0.0900 
     68 H68       -77.1194   26.1349  -73.1618 H         1 UNK         0.0900 
     69 H69       -76.9229   24.4016  -72.8831 H         1 UNK         0.0900 
     70 H70       -79.1467   26.4138  -71.0677 H         1 UNK         0.2959 
     71 H71       -81.3504   24.7317  -71.2767 H         1 UNK         0.1079 
     72 H72       -81.7871   27.6068  -70.4044 H         1 UNK         0.0837 
     73 H73       -82.3916   26.1339  -69.7487 H         1 UNK         0.0837 
     74 H74       -80.4941   29.0586  -68.9901 H         1 UNK         0.0685 
     75 H75       -79.0632   28.6196  -68.1021 H         1 UNK         0.0685 
     76 H76       -80.4585   29.0493  -71.5187 H         1 UNK         0.1434 
     77 H77       -76.6177   29.2380  -73.3933 H         1 UNK         0.1329 
     78 H78       -76.9193   28.2679  -69.2258 H         1 UNK         0.1335 
     79 H79       -74.7772   28.0345  -70.3945 H         1 UNK         0.0680 
     80 H80       -74.6972   28.2406  -72.1267 H         1 UNK         0.0680 
     81 H81       -72.6114   29.3928  -72.2229 H         1 UNK         0.1032 
     82 H82       -72.2854   31.0587  -71.8860 H         1 UNK         0.1032 
     83 H83       -74.6179   30.4067  -73.7304 H         1 UNK         0.0461 
     84 H84       -74.1458   34.0810  -73.0417 H         1 UNK         0.3453 
     85 H85       -74.2503   32.6951  -71.9792 H         1 UNK         0.3453 
     86 H86       -73.4363   29.3670  -75.2116 H         1 UNK         0.2984 
     87 H87       -71.5179   29.3643  -76.9459 H         1 UNK         0.0554 
     88 H88       -69.1839   28.4685  -76.9437 H         1 UNK         0.0847 
     89 H89       -68.9734   28.9895  -75.2724 H         1 UNK         0.0847 
     90 H90       -69.2151   30.1784  -76.5427 H         1 UNK         0.0847 
     91 H91       -72.1113   27.3327  -76.3172 H         1 UNK         0.3141 
     92 H92       -71.2098   25.0062  -73.9494 H         1 UNK         0.0743 
     93 H93       -73.8624   26.5394  -73.7455 H         1 UNK         0.0784 
     94 H94       -73.5807   24.8942  -73.1819 H         1 UNK         0.0784 
     95 H95       -72.7569   26.2404  -72.4095 H         1 UNK         0.0784 
     96 H96       -73.4623   25.1647  -75.7278 H         1 UNK         0.3213 
     97 H97       -71.6903   24.2698  -78.7085 H         1 UNK         0.0855 
     98 H98       -73.8405   22.8691  -77.0293 H         1 UNK         0.0814 
     99 H99       -72.3308   22.1487  -77.5648 H         1 UNK         0.0814 
    100 H100      -73.5413   22.6148  -78.7480 H         1 UNK         0.0814 
    101 H101      -74.4130   25.0355  -78.1140 H         1 UNK         0.3105 
    102 H102      -74.0426   28.4793  -78.8909 H         1 UNK         0.0547 
    103 H103      -74.1045   27.4078  -81.1411 H         1 UNK         0.0837 
    104 H104      -75.2762   26.2286  -80.5707 H         1 UNK         0.0837 
    105 H105      -75.7036   27.9381  -80.6508 H         1 UNK         0.0837 
    106 H106      -76.3031   26.7620  -78.3705 H         1 UNK         0.3020 
    107 H107      -76.3498   27.3402  -74.8606 H         1 UNK         0.1245 
    108 H108      -77.4185   29.3365  -75.8936 H         1 UNK         0.0781 
    109 H109      -78.1334   28.3476  -77.1344 H         1 UNK         0.0781 
    110 H110      -80.3227   29.7562  -73.7638 H         1 UNK         0.0836 
    111 H111      -78.8101   30.3338  -74.3969 H         1 UNK         0.0836 
    112 H112      -78.1300   25.7999  -76.3795 H         1 UNK         0.3022 
    113 H113      -76.8052   23.1831  -77.2152 H         1 UNK         0.0747 
    114 H114      -76.8931   21.3533  -75.5575 H         1 UNK         0.0793 
    115 H115      -75.4175   22.2720  -75.3413 H         1 UNK         0.0793 
    116 H116      -76.7595   22.4998  -74.2305 H         1 UNK         0.0793 
    117 H117      -78.8836   23.8229  -75.1513 H         1 UNK         0.3047 
    118 H118      -81.4146   22.7534  -77.4500 H         1 UNK         0.0822 
    119 H119      -82.1761   21.3130  -75.5775 H         1 UNK         0.0807 
    120 H120      -80.5894   21.4225  -74.8156 H         1 UNK         0.0807 
    121 H121      -80.7740   20.6057  -76.3629 H         1 UNK         0.0807 
    122 H122      -80.7582   24.1360  -74.8706 H         1 UNK         0.2946 
    123 H123      -82.5376   26.5645  -75.2199 H         1 UNK         0.1144 
    124 H124      -84.9103   25.9421  -75.6346 H         1 UNK         0.0793 
    125 H125      -84.7134   26.4408  -73.9655 H         1 UNK         0.0793 
    126 H126      -84.8465   24.7279  -74.3627 H         1 UNK         0.0793 
    127 H127      -82.0752   24.3500  -73.3539 H         1 UNK         0.2896 
@<TRIPOS>BOND
     1    1    2 1    
     2    1   67 1    
     3    1   68 1    
     4    1   69 1    
     5    2    3 2    
     6    2    4 am   BACKBONE|DICT|INTERRES
     7    4    5 1    
     8    4   70 1    
     9    5    6 1    
    10    5   65 1    
    11    5   71 1    
    12    6    7 1    
    13    6   72 1    
    14    6   73 1    
    15    7    8 1    
    16    8    9 1    
    17    8   74 1    
    18    8   75 1    
    19    9   10 ar   
    20    9   14 ar   
    21   10   11 ar   
    22   10   76 1    
    23   11   12 ar   
    24   11   48 1    
    25   12   13 ar   
    26   12   77 1    
    27   13   14 ar   
    28   13   15 1    
    29   14   78 1    
    30   15   16 1    
    31   15   79 1    
    32   15   80 1    
    33   16   17 1    
    34   17   18 1    
    35   17   81 1    
    36   17   82 1    
    37   18   19 1    
    38   18   22 1    
    39   18   83 1    
    40   19   20 am   BACKBONE|DICT|INTERRES
    41   19   21 2    
    42   20   84 1    
    43   20   85 1    
    44   22   23 am   BACKBONE|DICT|INTERRES
    45   22   86 1    
    46   23   24 2    
    47   23   25 1    
    48   25   26 1    
    49   25   27 1    
    50   25   87 1    
    51   26   88 1    
    52   26   89 1    
    53   26   90 1    
    54   27   28 am   BACKBONE|DICT|INTERRES
    55   27   91 1    
    56   28   29 2    
    57   28   30 1    
    58   30   31 1    
    59   30   32 1    
    60   30   92 1    
    61   31   93 1    
    62   31   94 1    
    63   31   95 1    
    64   32   33 am   BACKBONE|DICT|INTERRES
    65   32   96 1    
    66   33   34 2    
    67   33   35 1    
    68   35   36 1    
    69   35   37 1    
    70   35   97 1    
    71   36   98 1    
    72   36   99 1    
    73   36  100 1    
    74   37   38 am   BACKBONE|DICT|INTERRES
    75   37  101 1    
    76   38   39 2    
    77   38   40 1    
    78   40   41 1    
    79   40   42 1    
    80   40  102 1    
    81   41  103 1    
    82   41  104 1    
    83   41  105 1    
    84   42   43 am   BACKBONE|DICT|INTERRES
    85   42  106 1    
    86   43   44 2    
    87   43   45 1    
    88   45   46 1    
    89   45   49 1    
    90   45  107 1    
    91   46   47 1    
    92   46  108 1    
    93   46  109 1    
    94   47   48 1    
    95   48  110 1    
    96   48  111 1    
    97   49   50 am   BACKBONE|DICT|INTERRES
    98   49  112 1    
    99   50   51 2    
   100   50   52 1    
   101   52   53 1    
   102   52   54 1    
   103   52  113 1    
   104   53  114 1    
   105   53  115 1    
   106   53  116 1    
   107   54   55 am   BACKBONE|DICT|INTERRES
   108   54  117 1    
   109   55   56 2    
   110   55   57 1    
   111   57   58 1    
   112   57   59 1    
   113   57  118 1    
   114   58  119 1    
   115   58  120 1    
   116   58  121 1    
   117   59   60 am   BACKBONE|DICT|INTERRES
   118   59  122 1    
   119   60   61 2    
   120   60   62 1    
   121   62   63 1    
   122   62   64 1    
   123   62  123 1    
   124   63  124 1    
   125   63  125 1    
   126   63  126 1    
   127   64   65 am   BACKBONE|DICT|INTERRES
   128   64  127 1    
   129   65   66 2    
@<TRIPOS>SUBSTRUCTURE
     1 UNK         1 GROUP             0       ****    0 ROOT    
