@<TRIPOS>MOLECULE
3R135
127   129    1
SMALL
USER_CHARGES


@<TRIPOS>ATOM
      1 CA        -77.4384   25.4250  -72.6928 C.3       0 UNK        -0.1998 
      2 C         -78.9369   25.1706  -72.6935 C.2       0 UNK         0.4909 
      3 O         -79.4263   24.3248  -73.4475 O.2       0 UNK        -0.5240 
      4 N         -79.6435   25.8958  -71.8202 N.am      1 UNK        -0.4739 
      5 CA        -81.0694   25.8038  -71.4953 C.3       1 UNK         0.0864 
      6 C6        -81.4691   26.7203  -70.2942 C.3       11 UNK        -0.0881 
      7 S7        -80.1445   27.0305  -69.0666 S.3       11 UNK        -0.2682 
      8 C8        -79.7091   28.7692  -69.4248 C.3       11 UNK         0.0289 
      9 C9        -78.9328   28.9338  -70.7284 C.ar      11 UNK        -0.0687 
     10 C10       -79.6090   29.0817  -71.9436 C.ar      11 UNK        -0.0823 
     11 C11       -78.9070   29.2328  -73.1433 C.ar      11 UNK        -0.0830 
     12 C12       -77.5108   29.2914  -73.1170 C.ar      11 UNK        -0.1021 
     13 C13       -76.8212   29.1700  -71.9063 C.ar      11 UNK        -0.0753 
     14 C14       -77.5355   28.9746  -70.7190 C.ar      11 UNK        -0.0933 
     15 C15       -75.3060   29.2786  -71.8727 C.3       11 UNK         0.0166 
     16 S16       -74.8018   31.0115  -71.6521 S.3       11 UNK        -0.2615 
     17 C17       -73.0237   30.8445  -71.2818 C.3       11 UNK        -0.0865 
     18 CA        -72.1214   31.3616  -72.4311 C.3       10 UNK         0.0862 
     19 C         -70.6472   31.4616  -71.9487 C.2       10 UNK         0.5551 
     20 N         -70.1757   32.6599  -71.6325 N.am      10 UNK        -0.7319 
     21 O         -69.9507   30.4588  -71.8085 O.2       10 UNK        -0.5018 
     22 N         -72.2712   30.5348  -73.6381 N.am      10 UNK        -0.4509 
     23 C         -71.6867   30.7641  -74.8213 C.2       10 UNK         0.4899 
     24 O         -71.0165   31.7691  -75.0646 O.2       10 UNK        -0.4839 
     25 CA        -71.9118   29.7187  -75.9360 C.3       9 UNK         0.0222 
     26 CB        -70.6969   29.5947  -76.8795 C.3       9 UNK        -0.1966 
     27 N         -72.3347   28.3902  -75.4699 N.am      9 UNK        -0.4218 
     28 C         -71.6648   27.5528  -74.6609 C.2       9 UNK         0.5020 
     29 O         -70.5851   27.8130  -74.1306 O.2       9 UNK        -0.5274 
     30 CA        -72.3093   26.1795  -74.4130 C.3       8 UNK         0.0270 
     31 CB        -73.5347   26.2964  -73.4900 C.3       8 UNK        -0.1976 
     32 N         -72.6967   25.5188  -75.6589 N.am      8 UNK        -0.4313 
     33 C         -71.8443   25.0809  -76.5969 C.2       8 UNK         0.5041 
     34 O         -70.6181   25.1203  -76.4887 O.2       8 UNK        -0.5577 
     35 CA        -72.4668   24.5118  -77.8805 C.3       7 UNK         0.0284 
     36 CB        -72.9242   23.0586  -77.6755 C.3       7 UNK        -0.1958 
     37 N         -73.5928   25.3274  -78.3375 N.am      7 UNK        -0.4454 
     38 C         -73.4650   26.4848  -79.0009 C.2       7 UNK         0.5089 
     39 O         -72.3851   26.9558  -79.3581 O.2       7 UNK        -0.5125 
     40 CA        -74.7605   27.2491  -79.3282 C.3       6 UNK         0.0408 
     41 CB        -75.2527   26.8890  -80.7389 C.3       6 UNK        -0.1791 
     42 N         -75.8394   27.0143  -78.3636 N.am      6 UNK        -0.4762 
     43 C         -75.8405   27.4739  -77.1041 C.2       6 UNK         0.5007 
     44 O         -74.9222   28.1283  -76.6098 O.2       6 UNK        -0.5032 
     45 CA        -77.0540   27.0981  -76.2324 C.3       5 UNK         0.0783 
     46 C46       -78.2396   28.0432  -76.5356 C.3       11 UNK        -0.0857 
     47 S47       -79.6512   27.7977  -75.4072 S.3       11 UNK        -0.2512 
     48 C48       -79.6687   29.3552  -74.4562 C.3       11 UNK         0.0225 
     49 N         -77.4199   25.6752  -76.3309 N.am      5 UNK        -0.4615 
     50 C         -76.5910   24.6506  -76.0836 C.2       4 UNK         0.5053 
     51 O         -75.4061   24.8034  -75.7886 O.2       4 UNK        -0.5105 
     52 CA        -77.1526   23.2257  -76.1921 C.3       4 UNK         0.0263 
     53 CB        -76.4386   22.2331  -75.2523 C.3       4 UNK        -0.1981 
     54 N         -78.5956   23.1617  -75.9426 N.am      4 UNK        -0.4224 
     55 C         -79.4367   22.4059  -76.6625 C.2       3 UNK         0.4895 
     56 O         -79.1102   21.8155  -77.6932 O.2       3 UNK        -0.5091 
     57 CA        -80.8746   22.2390  -76.1554 C.3       3 UNK         0.0250 
     58 CB        -80.9733   21.0095  -75.2357 C.3       3 UNK        -0.1996 
     59 N         -81.3804   23.4133  -75.4403 N.am      3 UNK        -0.4254 
     60 C         -82.5693   23.9858  -75.6848 C.2       2 UNK         0.5004 
     61 O         -83.3163   23.6390  -76.6017 O.2       2 UNK        -0.5226 
     62 CA        -83.0250   25.1074  -74.7363 C.3       2 UNK         0.0269 
     63 CB        -84.5493   25.1056  -74.5034 C.3       2 UNK        -0.1926 
     64 N         -82.3317   25.0248  -73.4502 N.am      2 UNK        -0.4687 
     65 C         -81.9441   26.0848  -72.7364 C.2       1 UNK         0.5165 
     66 O         -82.2296   27.2449  -73.0397 O.2       1 UNK        -0.5079 
     67 H67       -77.0688   25.5714  -71.6780 H         1 UNK         0.0900 
     68 H68       -77.2096   26.3199  -73.2646 H         1 UNK         0.0900 
     69 H69       -76.8976   24.5850  -73.1244 H         1 UNK         0.0900 
     70 H70       -79.1581   26.5980  -71.2777 H         1 UNK         0.2959 
     71 H71       -81.2440   24.7712  -71.1860 H         1 UNK         0.1079 
     72 H72       -81.8517   27.6887  -70.6163 H         1 UNK         0.0837 
     73 H73       -82.3068   26.2628  -69.7653 H         1 UNK         0.0837 
     74 H74       -80.6141   29.3783  -69.4463 H         1 UNK         0.0685 
     75 H75       -79.1146   29.1522  -68.5938 H         1 UNK         0.0685 
     76 H76       -80.6890   29.0677  -71.9619 H         1 UNK         0.1434 
     77 H77       -76.9612   29.4449  -74.0353 H         1 UNK         0.1329 
     78 H78       -77.0024   28.8819  -69.7824 H         1 UNK         0.1335 
     79 H79       -74.9072   28.6667  -71.0620 H         1 UNK         0.0680 
     80 H80       -74.8785   28.8952  -72.7992 H         1 UNK         0.0680 
     81 H81       -72.7803   29.8091  -71.0355 H         1 UNK         0.1032 
     82 H82       -72.8383   31.4162  -70.3700 H         1 UNK         0.1032 
     83 H83       -72.4567   32.3664  -72.6967 H         1 UNK         0.0461 
     84 H84       -69.2276   32.7421  -71.2998 H         1 UNK         0.3453 
     85 H85       -70.7436   33.4868  -71.7351 H         1 UNK         0.3453 
     86 H86       -72.7943   29.6811  -73.5293 H         1 UNK         0.2984 
     87 H87       -72.7456   30.0971  -76.5291 H         1 UNK         0.0554 
     88 H88       -70.8870   28.8753  -77.6765 H         1 UNK         0.0847 
     89 H89       -69.8024   29.2737  -76.3447 H         1 UNK         0.0847 
     90 H90       -70.4671   30.5486  -77.3555 H         1 UNK         0.0847 
     91 H91       -73.2368   28.0890  -75.8361 H         1 UNK         0.3141 
     92 H92       -71.5693   25.5488  -73.9158 H         1 UNK         0.0743 
     93 H93       -74.3460   26.8513  -73.9619 H         1 UNK         0.0784 
     94 H94       -73.9222   25.3122  -73.2253 H         1 UNK         0.0784 
     95 H95       -73.2791   26.8047  -72.5593 H         1 UNK         0.0784 
     96 H96       -73.6950   25.3711  -75.8023 H         1 UNK         0.3213 
     97 H97       -71.6962   24.5141  -78.6550 H         1 UNK         0.0855 
     98 H98       -73.6960   22.9796  -76.9108 H         1 UNK         0.0814 
     99 H99       -72.0900   22.4302  -77.3608 H         1 UNK         0.0814 
    100 H100      -73.3200   22.6331  -78.5977 H         1 UNK         0.0814 
    101 H101      -74.5163   25.0401  -78.0483 H         1 UNK         0.3105 
    102 H102      -74.5227   28.3152  -79.3150 H         1 UNK         0.0547 
    103 H103      -74.4777   27.0804  -81.4826 H         1 UNK         0.0837 
    104 H104      -75.5248   25.8357  -80.8171 H         1 UNK         0.0837 
    105 H105      -76.1218   27.4835  -81.0208 H         1 UNK         0.0837 
    106 H106      -76.6310   26.4731  -78.6815 H         1 UNK         0.3020 
    107 H107      -76.7401   27.2760  -75.2045 H         1 UNK         0.1245 
    108 H108      -77.9180   29.0853  -76.4910 H         1 UNK         0.0781 
    109 H109      -78.5994   27.8880  -77.5544 H         1 UNK         0.0781 
    110 H110      -79.2721   30.1813  -75.0473 H         1 UNK         0.0836 
    111 H111      -80.7105   29.6118  -74.2571 H         1 UNK         0.0836 
    112 H112      -78.3816   25.4763  -76.5653 H         1 UNK         0.3022 
    113 H113      -76.9354   22.9230  -77.2183 H         1 UNK         0.0747 
    114 H114      -76.7854   21.2137  -75.4213 H         1 UNK         0.0793 
    115 H115      -75.3600   22.2311  -75.4092 H         1 UNK         0.0793 
    116 H116      -76.6154   22.4733  -74.2040 H         1 UNK         0.0793 
    117 H117      -78.9211   23.6062  -75.0862 H         1 UNK         0.3047 
    118 H118      -81.4847   22.0436  -77.0400 H         1 UNK         0.0822 
    119 H119      -82.0061   20.8136  -74.9473 H         1 UNK         0.0807 
    120 H120      -80.3894   21.1408  -74.3237 H         1 UNK         0.0807 
    121 H121      -80.6022   20.1139  -75.7363 H         1 UNK         0.0807 
    122 H122      -80.7965   23.7874  -74.6969 H         1 UNK         0.2946 
    123 H123      -82.7530   26.0406  -75.2362 H         1 UNK         0.1144 
    124 H124      -85.0930   25.2205  -75.4420 H         1 UNK         0.0793 
    125 H125      -84.8525   25.9289  -73.8564 H         1 UNK         0.0793 
    126 H126      -84.8827   24.1755  -74.0420 H         1 UNK         0.0793 
    127 H127      -82.0480   24.1009  -73.1530 H         1 UNK         0.2896 
@<TRIPOS>BOND
     1    1    2 1    
     2    1   67 1    
     3    1   68 1    
     4    1   69 1    
     5    2    3 2    
     6    2    4 am   BACKBONE|DICT|INTERRES
     7    4    5 1    
     8    4   70 1    
     9    5    6 1    
    10    5   65 1    
    11    5   71 1    
    12    6    7 1    
    13    6   72 1    
    14    6   73 1    
    15    7    8 1    
    16    8    9 1    
    17    8   74 1    
    18    8   75 1    
    19    9   10 ar   
    20    9   14 ar   
    21   10   11 ar   
    22   10   76 1    
    23   11   12 ar   
    24   11   48 1    
    25   12   13 ar   
    26   12   77 1    
    27   13   14 ar   
    28   13   15 1    
    29   14   78 1    
    30   15   16 1    
    31   15   79 1    
    32   15   80 1    
    33   16   17 1    
    34   17   18 1    
    35   17   81 1    
    36   17   82 1    
    37   18   19 1    
    38   18   22 1    
    39   18   83 1    
    40   19   20 am   BACKBONE|DICT|INTERRES
    41   19   21 2    
    42   20   84 1    
    43   20   85 1    
    44   22   23 am   BACKBONE|DICT|INTERRES
    45   22   86 1    
    46   23   24 2    
    47   23   25 1    
    48   25   26 1    
    49   25   27 1    
    50   25   87 1    
    51   26   88 1    
    52   26   89 1    
    53   26   90 1    
    54   27   28 am   BACKBONE|DICT|INTERRES
    55   27   91 1    
    56   28   29 2    
    57   28   30 1    
    58   30   31 1    
    59   30   32 1    
    60   30   92 1    
    61   31   93 1    
    62   31   94 1    
    63   31   95 1    
    64   32   33 am   BACKBONE|DICT|INTERRES
    65   32   96 1    
    66   33   34 2    
    67   33   35 1    
    68   35   36 1    
    69   35   37 1    
    70   35   97 1    
    71   36   98 1    
    72   36   99 1    
    73   36  100 1    
    74   37   38 am   BACKBONE|DICT|INTERRES
    75   37  101 1    
    76   38   39 2    
    77   38   40 1    
    78   40   41 1    
    79   40   42 1    
    80   40  102 1    
    81   41  103 1    
    82   41  104 1    
    83   41  105 1    
    84   42   43 am   BACKBONE|DICT|INTERRES
    85   42  106 1    
    86   43   44 2    
    87   43   45 1    
    88   45   46 1    
    89   45   49 1    
    90   45  107 1    
    91   46   47 1    
    92   46  108 1    
    93   46  109 1    
    94   47   48 1    
    95   48  110 1    
    96   48  111 1    
    97   49   50 am   BACKBONE|DICT|INTERRES
    98   49  112 1    
    99   50   51 2    
   100   50   52 1    
   101   52   53 1    
   102   52   54 1    
   103   52  113 1    
   104   53  114 1    
   105   53  115 1    
   106   53  116 1    
   107   54   55 am   BACKBONE|DICT|INTERRES
   108   54  117 1    
   109   55   56 2    
   110   55   57 1    
   111   57   58 1    
   112   57   59 1    
   113   57  118 1    
   114   58  119 1    
   115   58  120 1    
   116   58  121 1    
   117   59   60 am   BACKBONE|DICT|INTERRES
   118   59  122 1    
   119   60   61 2    
   120   60   62 1    
   121   62   63 1    
   122   62   64 1    
   123   62  123 1    
   124   63  124 1    
   125   63  125 1    
   126   63  126 1    
   127   64   65 am   BACKBONE|DICT|INTERRES
   128   64  127 1    
   129   65   66 2    
@<TRIPOS>SUBSTRUCTURE
     1 UNK         1 GROUP             0       ****    0 ROOT    
