@<TRIPOS>MOLECULE
3R135
127   129    1
SMALL
USER_CHARGES


@<TRIPOS>ATOM
      1 CA        -78.0164   25.4854  -67.9935 C.3       0 UNK        -0.1998 
      2 C         -78.7258   25.4971  -69.3384 C.2       0 UNK         0.4909 
      3 O         -78.2172   24.9238  -70.3008 O.2       0 UNK        -0.5240 
      4 N         -79.9171   26.1119  -69.4029 N.am      1 UNK        -0.4739 
      5 CA        -80.7298   26.3659  -70.6111 C.3       1 UNK         0.0864 
      6 C6        -80.0188   27.3175  -71.6173 C.3       11 UNK        -0.0881 
      7 S7        -79.6305   28.9310  -70.8546 S.3       11 UNK        -0.2682 
      8 C8        -80.2332   30.1158  -72.1080 C.3       11 UNK         0.0289 
      9 C9        -79.2966   30.3255  -73.2996 C.ar      11 UNK        -0.0687 
     10 C10       -79.8381   30.6968  -74.5364 C.ar      11 UNK        -0.0823 
     11 C11       -79.0123   30.9721  -75.6326 C.ar      11 UNK        -0.0830 
     12 C12       -77.6254   30.8737  -75.4776 C.ar      11 UNK        -0.1021 
     13 C13       -77.0695   30.4743  -74.2622 C.ar      11 UNK        -0.0753 
     14 C14       -77.9054   30.2182  -73.1732 C.ar      11 UNK        -0.0933 
     15 C15       -75.5624   30.3292  -74.1369 C.3       11 UNK         0.0166 
     16 S16       -74.9922   28.7464  -74.8289 S.3       11 UNK        -0.2615 
     17 C17       -75.3676   27.5899  -73.4646 C.3       11 UNK        -0.0865 
     18 CA        -74.2440   27.5453  -72.3940 C.3       10 UNK         0.0862 
     19 C         -74.6138   26.5802  -71.2336 C.2       10 UNK         0.5551 
     20 N         -73.9745   25.4234  -71.1085 N.am      10 UNK        -0.7319 
     21 O         -75.4805   26.9011  -70.4263 O.2       10 UNK        -0.5018 
     22 N         -72.9257   27.3178  -73.0046 N.am      10 UNK        -0.4509 
     23 C         -71.7449   27.5651  -72.4233 C.2       10 UNK         0.4899 
     24 O         -71.6100   27.9090  -71.2489 O.2       10 UNK        -0.4839 
     25 CA        -70.4990   27.4377  -73.3197 C.3       9 UNK         0.0222 
     26 CB        -69.8750   26.0404  -73.1774 C.3       9 UNK        -0.1966 
     27 N         -70.7871   27.6966  -74.7341 N.am      9 UNK        -0.4218 
     28 C         -71.1434   28.8761  -75.2593 C.2       9 UNK         0.5020 
     29 O         -71.1592   29.9283  -74.6194 O.2       9 UNK        -0.5274 
     30 CA        -71.5828   28.8940  -76.7374 C.3       8 UNK         0.0270 
     31 CB        -70.3745   29.0983  -77.6717 C.3       8 UNK        -0.1976 
     32 N         -72.4021   27.7456  -77.1628 N.am      8 UNK        -0.4313 
     33 C         -72.0621   26.4504  -77.2516 C.2       8 UNK         0.5041 
     34 O         -70.9576   26.0092  -76.9310 O.2       8 UNK        -0.5577 
     35 CA        -73.1383   25.4641  -77.7362 C.3       7 UNK         0.0284 
     36 CB        -73.7360   24.7103  -76.5363 C.3       7 UNK        -0.1958 
     37 N         -74.2112   26.0892  -78.5208 N.am      7 UNK        -0.4454 
     38 C         -74.0448   26.5681  -79.7657 C.2       7 UNK         0.5089 
     39 O         -72.9631   26.5450  -80.3543 O.2       7 UNK        -0.5125 
     40 CA        -75.2655   27.1529  -80.5069 C.3       6 UNK         0.0408 
     41 CB        -75.6419   26.2621  -81.7029 C.3       6 UNK        -0.1791 
     42 N         -76.4530   27.3371  -79.6726 N.am      6 UNK        -0.4762 
     43 C         -76.6110   28.2865  -78.7388 C.2       6 UNK         0.5007 
     44 O         -75.7606   29.1423  -78.4925 O.2       6 UNK        -0.5032 
     45 CA        -77.9156   28.2187  -77.9065 C.3       5 UNK         0.0783 
     46 C46       -79.0469   29.1041  -78.4920 C.3       11 UNK        -0.0857 
     47 S47       -78.7180   30.8980  -78.4454 S.3       11 UNK        -0.2512 
     48 C48       -79.6360   31.4223  -76.9538 C.3       11 UNK         0.0225 
     49 N         -78.3979   26.8411  -77.7315 N.am      5 UNK        -0.4615 
     50 C         -77.7161   25.8587  -77.1314 C.2       4 UNK         0.5053 
     51 O         -76.5850   25.9963  -76.6663 O.2       4 UNK        -0.5105 
     52 CA        -78.3725   24.4702  -77.1346 C.3       4 UNK         0.0263 
     53 CB        -77.9107   23.6732  -78.3661 C.3       4 UNK        -0.1981 
     54 N         -78.0458   23.7137  -75.9257 N.am      4 UNK        -0.4224 
     55 C         -78.4680   24.0385  -74.6980 C.2       3 UNK         0.4895 
     56 O         -79.2068   24.9962  -74.4553 O.2       3 UNK        -0.5091 
     57 CA        -77.9569   23.1536  -73.5497 C.3       3 UNK         0.0250 
     58 CB        -76.6392   23.7168  -72.9922 C.3       3 UNK        -0.1996 
     59 N         -78.9453   23.0782  -72.4734 N.am      3 UNK        -0.4254 
     60 C         -80.0999   22.3965  -72.5500 C.2       2 UNK         0.5004 
     61 O         -80.3774   21.6275  -73.4717 O.2       2 UNK        -0.5226 
     62 CA        -81.1286   22.6092  -71.4214 C.3       2 UNK         0.0269 
     63 CB        -81.0216   21.4898  -70.3732 C.3       2 UNK        -0.1926 
     64 N         -80.9685   23.9046  -70.7590 N.am      2 UNK        -0.4687 
     65 C         -81.2572   25.0902  -71.3149 C.2       1 UNK         0.5165 
     66 O         -81.9238   25.1990  -72.3452 O.2       1 UNK        -0.5079 
     67 H67       -77.0374   25.9548  -68.0887 H         1 UNK         0.0900 
     68 H68       -78.5780   26.0231  -67.2301 H         1 UNK         0.0900 
     69 H69       -77.8716   24.4605  -67.6535 H         1 UNK         0.0900 
     70 H70       -80.2872   26.5280  -68.5593 H         1 UNK         0.2959 
     71 H71       -81.6281   26.8763  -70.2599 H         1 UNK         0.1079 
     72 H72       -79.0933   26.8727  -71.9883 H         1 UNK         0.0837 
     73 H73       -80.6405   27.4852  -72.4986 H         1 UNK         0.0837 
     74 H74       -81.2219   29.8022  -72.4467 H         1 UNK         0.0685 
     75 H75       -80.3713   31.0810  -71.6195 H         1 UNK         0.0685 
     76 H76       -80.9104   30.7958  -74.6392 H         1 UNK         0.1434 
     77 H77       -76.9669   31.0906  -76.3076 H         1 UNK         0.1329 
     78 H78       -77.4649   29.9417  -72.2258 H         1 UNK         0.1335 
     79 H79       -75.0726   31.1416  -74.6758 H         1 UNK         0.0680 
     80 H80       -75.2448   30.4197  -73.0974 H         1 UNK         0.0680 
     81 H81       -76.3245   27.8583  -73.0142 H         1 UNK         0.1032 
     82 H82       -75.5154   26.6008  -73.9022 H         1 UNK         0.1032 
     83 H83       -74.1993   28.5370  -71.9399 H         1 UNK         0.0461 
     84 H84       -74.2163   24.8074  -70.3492 H         1 UNK         0.3453 
     85 H85       -73.2481   25.1691  -71.7575 H         1 UNK         0.3453 
     86 H86       -72.9331   27.0627  -73.9798 H         1 UNK         0.2984 
     87 H87       -69.7698   28.1773  -72.9830 H         1 UNK         0.0554 
     88 H88       -69.6341   25.8242  -72.1356 H         1 UNK         0.0847 
     89 H89       -68.9483   25.9605  -73.7460 H         1 UNK         0.0847 
     90 H90       -70.5502   25.2579  -73.5262 H         1 UNK         0.0847 
     91 H91       -70.7600   26.9045  -75.3760 H         1 UNK         0.3141 
     92 H92       -72.2323   29.7637  -76.8511 H         1 UNK         0.0743 
     93 H93       -69.8338   30.0099  -77.4139 H         1 UNK         0.0784 
     94 H94       -69.6648   28.2728  -77.6088 H         1 UNK         0.0784 
     95 H95       -70.6896   29.1907  -78.7112 H         1 UNK         0.0784 
     96 H96       -73.3581   27.9763  -77.4021 H         1 UNK         0.3213 
     97 H97       -72.6403   24.7331  -78.3771 H         1 UNK         0.0855 
     98 H98       -74.1887   25.3925  -75.8159 H         1 UNK         0.0814 
     99 H99       -72.9660   24.1471  -76.0073 H         1 UNK         0.0814 
    100 H100      -74.4992   23.9984  -76.8506 H         1 UNK         0.0814 
    101 H101      -75.1210   26.1535  -78.0740 H         1 UNK         0.3105 
    102 H102      -74.9682   28.1302  -80.8930 H         1 UNK         0.0547 
    103 H103      -76.4547   26.6979  -82.2841 H         1 UNK         0.0837 
    104 H104      -74.7960   26.1371  -82.3805 H         1 UNK         0.0837 
    105 H105      -75.9515   25.2662  -81.3835 H         1 UNK         0.0837 
    106 H106      -77.1983   26.6672  -79.7945 H         1 UNK         0.3020 
    107 H107      -77.6652   28.5828  -76.9086 H         1 UNK         0.1245 
    108 H108      -79.9769   28.9196  -77.9518 H         1 UNK         0.0781 
    109 H109      -79.2496   28.8247  -79.5277 H         1 UNK         0.0781 
    110 H110      -80.6657   31.0698  -77.0322 H         1 UNK         0.0836 
    111 H111      -79.6867   32.5118  -76.9494 H         1 UNK         0.0836 
    112 H112      -79.3165   26.6401  -78.0997 H         1 UNK         0.3022 
    113 H113      -79.4574   24.5895  -77.1767 H         1 UNK         0.0747 
    114 H114      -78.1773   24.1878  -79.2902 H         1 UNK         0.0793 
    115 H115      -76.8289   23.5311  -78.3733 H         1 UNK         0.0793 
    116 H116      -78.3788   22.6891  -78.4010 H         1 UNK         0.0793 
    117 H117      -77.4084   22.9389  -76.0358 H         1 UNK         0.3047 
    118 H118      -77.7778   22.1444  -73.9268 H         1 UNK         0.0822 
    119 H119      -75.8693   23.7581  -73.7639 H         1 UNK         0.0807 
    120 H120      -76.2542   23.1010  -72.1794 H         1 UNK         0.0807 
    121 H121      -76.7693   24.7295  -72.6083 H         1 UNK         0.0807 
    122 H122      -78.8011   23.7142  -71.6928 H         1 UNK         0.2946 
    123 H123      -82.1232   22.5702  -71.8719 H         1 UNK         0.1144 
    124 H124      -81.7841   21.5947  -69.6011 H         1 UNK         0.0793 
    125 H125      -80.0460   21.4851  -69.8852 H         1 UNK         0.0793 
    126 H126      -81.1608   20.5107  -70.8337 H         1 UNK         0.0793 
    127 H127      -80.4184   23.9164  -69.9120 H         1 UNK         0.2896 
@<TRIPOS>BOND
     1    1    2 1    
     2    1   67 1    
     3    1   68 1    
     4    1   69 1    
     5    2    3 2    
     6    2    4 am   BACKBONE|DICT|INTERRES
     7    4    5 1    
     8    4   70 1    
     9    5    6 1    
    10    5   65 1    
    11    5   71 1    
    12    6    7 1    
    13    6   72 1    
    14    6   73 1    
    15    7    8 1    
    16    8    9 1    
    17    8   74 1    
    18    8   75 1    
    19    9   10 ar   
    20    9   14 ar   
    21   10   11 ar   
    22   10   76 1    
    23   11   12 ar   
    24   11   48 1    
    25   12   13 ar   
    26   12   77 1    
    27   13   14 ar   
    28   13   15 1    
    29   14   78 1    
    30   15   16 1    
    31   15   79 1    
    32   15   80 1    
    33   16   17 1    
    34   17   18 1    
    35   17   81 1    
    36   17   82 1    
    37   18   19 1    
    38   18   22 1    
    39   18   83 1    
    40   19   20 am   BACKBONE|DICT|INTERRES
    41   19   21 2    
    42   20   84 1    
    43   20   85 1    
    44   22   23 am   BACKBONE|DICT|INTERRES
    45   22   86 1    
    46   23   24 2    
    47   23   25 1    
    48   25   26 1    
    49   25   27 1    
    50   25   87 1    
    51   26   88 1    
    52   26   89 1    
    53   26   90 1    
    54   27   28 am   BACKBONE|DICT|INTERRES
    55   27   91 1    
    56   28   29 2    
    57   28   30 1    
    58   30   31 1    
    59   30   32 1    
    60   30   92 1    
    61   31   93 1    
    62   31   94 1    
    63   31   95 1    
    64   32   33 am   BACKBONE|DICT|INTERRES
    65   32   96 1    
    66   33   34 2    
    67   33   35 1    
    68   35   36 1    
    69   35   37 1    
    70   35   97 1    
    71   36   98 1    
    72   36   99 1    
    73   36  100 1    
    74   37   38 am   BACKBONE|DICT|INTERRES
    75   37  101 1    
    76   38   39 2    
    77   38   40 1    
    78   40   41 1    
    79   40   42 1    
    80   40  102 1    
    81   41  103 1    
    82   41  104 1    
    83   41  105 1    
    84   42   43 am   BACKBONE|DICT|INTERRES
    85   42  106 1    
    86   43   44 2    
    87   43   45 1    
    88   45   46 1    
    89   45   49 1    
    90   45  107 1    
    91   46   47 1    
    92   46  108 1    
    93   46  109 1    
    94   47   48 1    
    95   48  110 1    
    96   48  111 1    
    97   49   50 am   BACKBONE|DICT|INTERRES
    98   49  112 1    
    99   50   51 2    
   100   50   52 1    
   101   52   53 1    
   102   52   54 1    
   103   52  113 1    
   104   53  114 1    
   105   53  115 1    
   106   53  116 1    
   107   54   55 am   BACKBONE|DICT|INTERRES
   108   54  117 1    
   109   55   56 2    
   110   55   57 1    
   111   57   58 1    
   112   57   59 1    
   113   57  118 1    
   114   58  119 1    
   115   58  120 1    
   116   58  121 1    
   117   59   60 am   BACKBONE|DICT|INTERRES
   118   59  122 1    
   119   60   61 2    
   120   60   62 1    
   121   62   63 1    
   122   62   64 1    
   123   62  123 1    
   124   63  124 1    
   125   63  125 1    
   126   63  126 1    
   127   64   65 am   BACKBONE|DICT|INTERRES
   128   64  127 1    
   129   65   66 2    
@<TRIPOS>SUBSTRUCTURE
     1 UNK         1 GROUP             0       ****    0 ROOT    
