@<TRIPOS>MOLECULE
3R135
127   129    1
SMALL
USER_CHARGES


@<TRIPOS>ATOM
      1 CA        -82.3567   29.8015  -76.9723 C.3       0 UNK        -0.1998 
      2 C         -82.2974   28.9198  -75.7342 C.2       0 UNK         0.4909 
      3 O         -83.2969   28.2877  -75.3888 O.2       0 UNK        -0.5240 
      4 N         -81.1310   28.8719  -75.0749 N.am      1 UNK        -0.4739 
      5 CA        -80.7997   28.1098  -73.8575 C.3       1 UNK         0.0864 
      6 C6        -81.6787   28.4556  -72.6241 C.3       11 UNK        -0.0881 
      7 S7        -81.6100   30.2349  -72.2125 S.3       11 UNK        -0.2682 
      8 C8        -80.5230   30.2587  -70.7497 C.3       11 UNK         0.0289 
      9 C9        -79.1672   29.6199  -71.0197 C.ar      11 UNK        -0.0687 
     10 C10       -78.8066   28.4383  -70.3651 C.ar      11 UNK        -0.0823 
     11 C11       -77.5698   27.8338  -70.6070 C.ar      11 UNK        -0.0830 
     12 C12       -76.6932   28.4291  -71.5217 C.ar      11 UNK        -0.1021 
     13 C13       -77.0373   29.6110  -72.1822 C.ar      11 UNK        -0.0753 
     14 C14       -78.2737   30.2076  -71.9203 C.ar      11 UNK        -0.0933 
     15 C15       -76.0837   30.2342  -73.1912 C.3       11 UNK         0.0166 
     16 S16       -74.9714   31.4483  -72.4151 S.3       11 UNK        -0.2615 
     17 C17       -73.6768   30.3801  -71.6905 C.3       11 UNK        -0.0865 
     18 CA        -72.3430   30.4528  -72.4744 C.3       10 UNK         0.0862 
     19 C         -71.2271   29.6638  -71.7412 C.2       10 UNK         0.5551 
     20 N         -70.3684   30.3468  -70.9970 N.am      10 UNK        -0.7319 
     21 O         -71.1646   28.4377  -71.8040 O.2       10 UNK        -0.5018 
     22 N         -72.5012   29.9833  -73.8569 N.am      10 UNK        -0.4509 
     23 C         -71.6996   30.3329  -74.8686 C.2       10 UNK         0.4899 
     24 O         -70.7628   31.1268  -74.7607 O.2       10 UNK        -0.4839 
     25 CA        -72.0196   29.6892  -76.2298 C.3       9 UNK         0.0222 
     26 CB        -71.0320   30.0974  -77.3441 C.3       9 UNK        -0.1966 
     27 N         -72.1443   28.2294  -76.1517 N.am      9 UNK        -0.4218 
     28 C         -71.1998   27.3463  -75.7843 C.2       9 UNK         0.5020 
     29 O         -70.0638   27.6637  -75.4289 O.2       9 UNK        -0.5274 
     30 CA        -71.5606   25.8462  -75.8279 C.3       8 UNK         0.0270 
     31 CB        -71.7127   25.2872  -74.4032 C.3       8 UNK        -0.1976 
     32 N         -72.7702   25.5409  -76.5978 N.am      8 UNK        -0.4313 
     33 C         -72.8952   25.6749  -77.9258 C.2       8 UNK         0.5041 
     34 O         -71.9650   25.9801  -78.6728 O.2       8 UNK        -0.5577 
     35 CA        -74.3023   25.4798  -78.5202 C.3       7 UNK         0.0284 
     36 CB        -74.4994   24.0257  -78.9751 C.3       7 UNK        -0.1958 
     37 N         -75.3896   25.8665  -77.6122 N.am      7 UNK        -0.4454 
     38 C         -75.5810   27.1014  -77.1224 C.2       7 UNK         0.5089 
     39 O         -74.8524   28.0604  -77.3752 O.2       7 UNK        -0.5125 
     40 CA        -76.7542   27.2879  -76.1481 C.3       6 UNK         0.0408 
     41 CB        -78.0848   27.3623  -76.9114 C.3       6 UNK        -0.1791 
     42 N         -76.8037   26.2216  -75.1466 N.am      6 UNK        -0.4762 
     43 C         -75.8887   26.0500  -74.1799 C.2       6 UNK         0.5007 
     44 O         -74.9534   26.8276  -73.9850 O.2       6 UNK        -0.5032 
     45 CA        -75.9897   24.7553  -73.3442 C.3       5 UNK         0.0783 
     46 C46       -76.8985   24.9027  -72.0975 C.3       11 UNK        -0.0857 
     47 S47       -75.9734   25.4821  -70.6392 S.3       11 UNK        -0.2512 
     48 C48       -77.2077   26.5628  -69.8364 C.3       11 UNK         0.0225 
     49 N         -76.3768   23.6044  -74.1668 N.am      5 UNK        -0.4615 
     50 C         -75.5782   23.0507  -75.0879 C.2       4 UNK         0.5053 
     51 O         -74.4512   23.4674  -75.3519 O.2       4 UNK        -0.5105 
     52 CA        -76.1273   21.8375  -75.8544 C.3       4 UNK         0.0263 
     53 CB        -75.8889   20.5470  -75.0543 C.3       4 UNK        -0.1981 
     54 N         -77.5442   21.9305  -76.2212 N.am      4 UNK        -0.4224 
     55 C         -78.0874   22.8894  -76.9856 C.2       3 UNK         0.4895 
     56 O         -77.4826   23.8949  -77.3577 O.2       3 UNK        -0.5091 
     57 CA        -79.5462   22.6794  -77.4175 C.3       3 UNK         0.0250 
     58 CB        -79.8553   21.2151  -77.7886 C.3       3 UNK        -0.1996 
     59 N         -80.4583   23.1172  -76.3626 N.am      3 UNK        -0.4254 
     60 C         -80.9985   24.3395  -76.2811 C.2       2 UNK         0.5004 
     61 O         -80.8130   25.2248  -77.1192 O.2       2 UNK        -0.5226 
     62 CA        -81.9398   24.6189  -75.0897 C.3       2 UNK         0.0269 
     63 CB        -81.7954   23.6242  -73.9133 C.3       2 UNK        -0.1926 
     64 N         -81.8169   26.0048  -74.6250 N.am      2 UNK        -0.4687 
     65 C         -80.7293   26.5888  -74.1057 C.2       1 UNK         0.5165 
     66 O         -79.6868   25.9849  -73.8550 O.2       1 UNK        -0.5079 
     67 H67       -83.1287   30.5614  -76.8540 H         1 UNK         0.0900 
     68 H68       -81.4097   30.3068  -77.1607 H         1 UNK         0.0900 
     69 H69       -82.6005   29.2006  -77.8480 H         1 UNK         0.0900 
     70 H70       -80.3640   29.4214  -75.4354 H         1 UNK         0.2959 
     71 H71       -79.7781   28.4037  -73.6110 H         1 UNK         0.1079 
     72 H72       -81.3683   27.8730  -71.7550 H         1 UNK         0.0837 
     73 H73       -82.7213   28.1876  -72.8015 H         1 UNK         0.0837 
     74 H74       -80.3747   31.2933  -70.4372 H         1 UNK         0.0685 
     75 H75       -81.0323   29.7598  -69.9236 H         1 UNK         0.0685 
     76 H76       -79.4916   27.9881  -69.6593 H         1 UNK         0.1434 
     77 H77       -75.7372   27.9721  -71.7263 H         1 UNK         0.1329 
     78 H78       -78.5489   31.1225  -72.4273 H         1 UNK         0.1335 
     79 H79       -75.4986   29.4639  -73.6945 H         1 UNK         0.0680 
     80 H80       -76.6555   30.7354  -73.9736 H         1 UNK         0.0680 
     81 H81       -73.5267   30.7080  -70.6600 H         1 UNK         0.1032 
     82 H82       -74.0200   29.3486  -71.6254 H         1 UNK         0.1032 
     83 H83       -72.0462   31.5036  -72.5097 H         1 UNK         0.0461 
     84 H84       -69.6468   29.8487  -70.4995 H         1 UNK         0.3453 
     85 H85       -70.4178   31.3519  -70.9333 H         1 UNK         0.3453 
     86 H86       -73.2098   29.2818  -74.0140 H         1 UNK         0.2984 
     87 H87       -73.0041   30.0609  -76.5174 H         1 UNK         0.0554 
     88 H88       -71.3073   29.6509  -78.2996 H         1 UNK         0.0847 
     89 H89       -70.0103   29.7935  -77.1141 H         1 UNK         0.0847 
     90 H90       -71.0252   31.1792  -77.4820 H         1 UNK         0.0847 
     91 H91       -73.0476   27.8674  -76.4408 H         1 UNK         0.3141 
     92 H92       -70.7261   25.3298  -76.3066 H         1 UNK         0.0743 
     93 H93       -72.5302   25.7680  -73.8659 H         1 UNK         0.0784 
     94 H94       -71.9020   24.2137  -74.4141 H         1 UNK         0.0784 
     95 H95       -70.8047   25.4501  -73.8209 H         1 UNK         0.0784 
     96 H96       -73.5643   25.1826  -76.0765 H         1 UNK         0.3213 
     97 H97       -74.3741   26.1231  -79.3997 H         1 UNK         0.0855 
     98 H98       -74.4162   23.3301  -78.1408 H         1 UNK         0.0814 
     99 H99       -73.7453   23.7425  -79.7105 H         1 UNK         0.0814 
    100 H100      -75.4755   23.8810  -79.4386 H         1 UNK         0.0814 
    101 H101      -76.0699   25.1452  -77.3794 H         1 UNK         0.3105 
    102 H102      -76.6128   28.2358  -75.6251 H         1 UNK         0.0547 
    103 H103      -78.0734   28.1766  -77.6368 H         1 UNK         0.0837 
    104 H104      -78.2948   26.4430  -77.4587 H         1 UNK         0.0837 
    105 H105      -78.9195   27.5414  -76.2377 H         1 UNK         0.0837 
    106 H106      -77.5435   25.5390  -75.2411 H         1 UNK         0.3020 
    107 H107      -74.9750   24.5434  -72.9965 H         1 UNK         0.1245 
    108 H108      -77.3340   23.9408  -71.8225 H         1 UNK         0.0781 
    109 H109      -77.7436   25.5625  -72.2931 H         1 UNK         0.0781 
    110 H110      -76.8216   26.8557  -68.8593 H         1 UNK         0.0836 
    111 H111      -78.1058   25.9723  -69.6476 H         1 UNK         0.0836 
    112 H112      -77.2965   23.2169  -74.0178 H         1 UNK         0.3022 
    113 H113      -75.5618   21.7610  -76.7846 H         1 UNK         0.0747 
    114 H114      -76.1598   19.6640  -75.6336 H         1 UNK         0.0793 
    115 H115      -74.8365   20.4434  -74.7852 H         1 UNK         0.0793 
    116 H116      -76.4648   20.5318  -74.1281 H         1 UNK         0.0793 
    117 H117      -78.1242   21.1467  -75.9603 H         1 UNK         0.3047 
    118 H118      -79.7010   23.2801  -78.3169 H         1 UNK         0.0822 
    119 H119      -80.8430   21.1311  -78.2425 H         1 UNK         0.0807 
    120 H120      -79.8361   20.5493  -76.9253 H         1 UNK         0.0807 
    121 H121      -79.1369   20.8347  -78.5165 H         1 UNK         0.0807 
    122 H122      -80.6558   22.4566  -75.6251 H         1 UNK         0.2946 
    123 H123      -82.9531   24.5218  -75.4829 H         1 UNK         0.1144 
    124 H124      -82.4406   23.9074  -73.0815 H         1 UNK         0.0793 
    125 H125      -80.7735   23.5783  -73.5349 H         1 UNK         0.0793 
    126 H126      -82.0879   22.6154  -74.2065 H         1 UNK         0.0793 
    127 H127      -82.5835   26.6281  -74.8693 H         1 UNK         0.2896 
@<TRIPOS>BOND
     1    1    2 1    
     2    1   67 1    
     3    1   68 1    
     4    1   69 1    
     5    2    3 2    
     6    2    4 am   BACKBONE|DICT|INTERRES
     7    4    5 1    
     8    4   70 1    
     9    5    6 1    
    10    5   65 1    
    11    5   71 1    
    12    6    7 1    
    13    6   72 1    
    14    6   73 1    
    15    7    8 1    
    16    8    9 1    
    17    8   74 1    
    18    8   75 1    
    19    9   10 ar   
    20    9   14 ar   
    21   10   11 ar   
    22   10   76 1    
    23   11   12 ar   
    24   11   48 1    
    25   12   13 ar   
    26   12   77 1    
    27   13   14 ar   
    28   13   15 1    
    29   14   78 1    
    30   15   16 1    
    31   15   79 1    
    32   15   80 1    
    33   16   17 1    
    34   17   18 1    
    35   17   81 1    
    36   17   82 1    
    37   18   19 1    
    38   18   22 1    
    39   18   83 1    
    40   19   20 am   BACKBONE|DICT|INTERRES
    41   19   21 2    
    42   20   84 1    
    43   20   85 1    
    44   22   23 am   BACKBONE|DICT|INTERRES
    45   22   86 1    
    46   23   24 2    
    47   23   25 1    
    48   25   26 1    
    49   25   27 1    
    50   25   87 1    
    51   26   88 1    
    52   26   89 1    
    53   26   90 1    
    54   27   28 am   BACKBONE|DICT|INTERRES
    55   27   91 1    
    56   28   29 2    
    57   28   30 1    
    58   30   31 1    
    59   30   32 1    
    60   30   92 1    
    61   31   93 1    
    62   31   94 1    
    63   31   95 1    
    64   32   33 am   BACKBONE|DICT|INTERRES
    65   32   96 1    
    66   33   34 2    
    67   33   35 1    
    68   35   36 1    
    69   35   37 1    
    70   35   97 1    
    71   36   98 1    
    72   36   99 1    
    73   36  100 1    
    74   37   38 am   BACKBONE|DICT|INTERRES
    75   37  101 1    
    76   38   39 2    
    77   38   40 1    
    78   40   41 1    
    79   40   42 1    
    80   40  102 1    
    81   41  103 1    
    82   41  104 1    
    83   41  105 1    
    84   42   43 am   BACKBONE|DICT|INTERRES
    85   42  106 1    
    86   43   44 2    
    87   43   45 1    
    88   45   46 1    
    89   45   49 1    
    90   45  107 1    
    91   46   47 1    
    92   46  108 1    
    93   46  109 1    
    94   47   48 1    
    95   48  110 1    
    96   48  111 1    
    97   49   50 am   BACKBONE|DICT|INTERRES
    98   49  112 1    
    99   50   51 2    
   100   50   52 1    
   101   52   53 1    
   102   52   54 1    
   103   52  113 1    
   104   53  114 1    
   105   53  115 1    
   106   53  116 1    
   107   54   55 am   BACKBONE|DICT|INTERRES
   108   54  117 1    
   109   55   56 2    
   110   55   57 1    
   111   57   58 1    
   112   57   59 1    
   113   57  118 1    
   114   58  119 1    
   115   58  120 1    
   116   58  121 1    
   117   59   60 am   BACKBONE|DICT|INTERRES
   118   59  122 1    
   119   60   61 2    
   120   60   62 1    
   121   62   63 1    
   122   62   64 1    
   123   62  123 1    
   124   63  124 1    
   125   63  125 1    
   126   63  126 1    
   127   64   65 am   BACKBONE|DICT|INTERRES
   128   64  127 1    
   129   65   66 2    
@<TRIPOS>SUBSTRUCTURE
     1 UNK         1 GROUP             0       ****    0 ROOT    
