@<TRIPOS>MOLECULE
3R135
127   129    1
SMALL
USER_CHARGES


@<TRIPOS>ATOM
      1 CA        -84.7388   24.1487  -70.5031 C.3       0 UNK        -0.1998 
      2 C         -83.9813   25.1703  -71.3382 C.2       0 UNK         0.4909 
      3 O         -84.5924   26.0908  -71.8829 O.2       0 UNK        -0.5240 
      4 N         -82.6544   25.0219  -71.4343 N.am      1 UNK        -0.4739 
      5 CA        -81.7742   25.8800  -72.2342 C.3       1 UNK         0.0864 
      6 C6        -80.2827   25.6903  -71.8624 C.3       11 UNK        -0.0881 
      7 S7        -79.9112   25.9553  -70.0970 S.3       11 UNK        -0.2682 
      8 C8        -79.8920   27.7729  -69.9640 C.3       11 UNK         0.0289 
      9 C9        -78.8526   28.4336  -70.8615 C.ar      11 UNK        -0.0687 
     10 C10       -79.2581   29.2887  -71.8907 C.ar      11 UNK        -0.0823 
     11 C11       -78.3125   29.9391  -72.6883 C.ar      11 UNK        -0.0830 
     12 C12       -76.9532   29.7343  -72.4392 C.ar      11 UNK        -0.1021 
     13 C13       -76.5269   28.8520  -71.4402 C.ar      11 UNK        -0.0753 
     14 C14       -77.4876   28.2149  -70.6470 C.ar      11 UNK        -0.0933 
     15 C15       -75.0432   28.5845  -71.1857 C.3       11 UNK         0.0166 
     16 S16       -74.0298   28.5112  -72.7043 S.3       11 UNK        -0.2615 
     17 C17       -73.5394   30.2620  -72.9229 C.3       11 UNK        -0.0865 
     18 CA        -72.0053   30.4934  -72.9325 C.3       10 UNK         0.0862 
     19 C         -71.3474   30.1809  -71.5560 C.2       10 UNK         0.5551 
     20 N         -71.5268   31.0580  -70.5772 N.am      10 UNK        -0.7319 
     21 O         -70.7055   29.1507  -71.3565 O.2       10 UNK        -0.5018 
     22 N         -71.3826   29.8062  -74.0716 N.am      10 UNK        -0.4509 
     23 C         -70.1192   29.9542  -74.4854 C.2       10 UNK         0.4899 
     24 O         -69.3313   30.7625  -73.9905 O.2       10 UNK        -0.4839 
     25 CA        -69.6645   29.0511  -75.6528 C.3       9 UNK         0.0222 
     26 CB        -68.1424   29.1072  -75.8857 C.3       9 UNK        -0.1966 
     27 N         -70.0652   27.6512  -75.4695 N.am      9 UNK        -0.4218 
     28 C         -71.2781   27.1504  -75.7354 C.2       9 UNK         0.5020 
     29 O         -72.2137   27.8282  -76.1642 O.2       9 UNK        -0.5274 
     30 CA        -71.4820   25.6663  -75.4099 C.3       8 UNK         0.0270 
     31 CB        -71.8050   25.4817  -73.9173 C.3       8 UNK        -0.1976 
     32 N         -72.5783   25.1118  -76.2051 N.am      8 UNK        -0.4313 
     33 C         -72.4098   24.3735  -77.3084 C.2       8 UNK         0.5041 
     34 O         -71.3067   24.0944  -77.7827 O.2       8 UNK        -0.5577 
     35 CA        -73.6696   23.8115  -77.9861 C.3       7 UNK         0.0284 
     36 CB        -74.1721   22.5677  -77.2354 C.3       7 UNK        -0.1958 
     37 N         -74.7618   24.7766  -78.1291 N.am      7 UNK        -0.4454 
     38 C         -74.7597   25.7963  -78.9998 C.2       7 UNK         0.5089 
     39 O         -73.8001   26.0865  -79.7151 O.2       7 UNK        -0.5125 
     40 CA        -76.0630   26.6032  -79.1326 C.3       6 UNK         0.0408 
     41 CB        -77.0841   25.8471  -79.9981 C.3       6 UNK        -0.1791 
     42 N         -76.6623   26.9074  -77.8358 N.am      6 UNK        -0.4762 
     43 C         -76.2451   27.8840  -77.0177 C.2       6 UNK         0.5007 
     44 O         -75.3685   28.6965  -77.3124 O.2       6 UNK        -0.5032 
     45 CA        -76.9228   27.9548  -75.6330 C.3       5 UNK         0.0783 
     46 C46       -78.2233   28.8041  -75.6836 C.3       11 UNK        -0.0857 
     47 S47       -77.9043   30.5760  -75.3947 S.3       11 UNK        -0.2512 
     48 C48       -78.7655   30.8702  -73.8096 C.3       11 UNK         0.0225 
     49 N         -77.1757   26.6244  -75.0711 N.am      5 UNK        -0.4615 
     50 C         -76.2426   25.7043  -74.7868 C.2       4 UNK         0.5053 
     51 O         -75.0360   25.8621  -74.9544 O.2       4 UNK        -0.5105 
     52 CA        -76.7543   24.3462  -74.2814 C.3       4 UNK         0.0263 
     53 CB        -76.9029   24.3666  -72.7519 C.3       4 UNK        -0.1981 
     54 N         -78.0181   23.9510  -74.9148 N.am      4 UNK        -0.4224 
     55 C         -78.1477   23.6888  -76.2251 C.2       3 UNK         0.4895 
     56 O         -77.2144   23.7211  -77.0265 O.2       3 UNK        -0.5091 
     57 CA        -79.5683   23.4110  -76.7365 C.3       3 UNK         0.0250 
     58 CB        -80.0510   22.0174  -76.3035 C.3       3 UNK        -0.1996 
     59 N         -80.5281   24.4274  -76.2996 N.am      3 UNK        -0.4254 
     60 C         -80.4857   25.7255  -76.6265 C.2       2 UNK         0.5004 
     61 O         -79.6112   26.2205  -77.3369 O.2       2 UNK        -0.5226 
     62 CA        -81.5771   26.6358  -76.0342 C.3       2 UNK         0.0269 
     63 CB        -82.9568   26.3468  -76.6589 C.3       2 UNK        -0.1926 
     64 N         -81.6262   26.6270  -74.5625 N.am      2 UNK        -0.4687 
     65 C         -81.9561   25.6166  -73.7431 C.2       1 UNK         0.5165 
     66 O         -82.3095   24.5001  -74.1334 O.2       1 UNK        -0.5079 
     67 H67       -85.2616   24.6450  -69.6862 H         1 UNK         0.0900 
     68 H68       -85.4766   23.6347  -71.1185 H         1 UNK         0.0900 
     69 H69       -84.0738   23.3993  -70.0744 H         1 UNK         0.0900 
     70 H70       -82.2033   24.2457  -70.9719 H         1 UNK         0.2959 
     71 H71       -82.0543   26.9174  -72.0386 H         1 UNK         0.1079 
     72 H72       -79.9643   24.6744  -72.1045 H         1 UNK         0.0837 
     73 H73       -79.6477   26.3513  -72.4545 H         1 UNK         0.0837 
     74 H74       -80.8917   28.1532  -70.1785 H         1 UNK         0.0685 
     75 H75       -79.6833   28.0427  -68.9280 H         1 UNK         0.0685 
     76 H76       -80.3121   29.4600  -72.0614 H         1 UNK         0.1434 
     77 H77       -76.2308   30.2522  -73.0505 H         1 UNK         0.1329 
     78 H78       -77.1764   27.5463  -69.8559 H         1 UNK         0.1335 
     79 H79       -74.6472   29.3372  -70.5032 H         1 UNK         0.0680 
     80 H80       -74.9291   27.6253  -70.6783 H         1 UNK         0.0680 
     81 H81       -73.9608   30.6094  -73.8676 H         1 UNK         0.1032 
     82 H82       -74.0072   30.8818  -72.1563 H         1 UNK         0.1032 
     83 H83       -71.8453   31.5586  -73.1110 H         1 UNK         0.0461 
     84 H84       -72.0485   31.9079  -70.7241 H         1 UNK         0.3453 
     85 H85       -71.1187   30.8722  -69.6744 H         1 UNK         0.3453 
     86 H86       -71.9562   29.1152  -74.5423 H         1 UNK         0.2984 
     87 H87       -70.1465   29.4361  -76.5540 H         1 UNK         0.0554 
     88 H88       -67.8155   30.1257  -76.1000 H         1 UNK         0.0847 
     89 H89       -67.8469   28.4920  -76.7358 H         1 UNK         0.0847 
     90 H90       -67.5869   28.7637  -75.0121 H         1 UNK         0.0847 
     91 H91       -69.3688   27.0379  -75.0699 H         1 UNK         0.3141 
     92 H92       -70.5527   25.1342  -75.6244 H         1 UNK         0.0743 
     93 H93       -72.7203   26.0021  -73.6354 H         1 UNK         0.0784 
     94 H94       -71.9317   24.4283  -73.6675 H         1 UNK         0.0784 
     95 H95       -71.0045   25.8714  -73.2872 H         1 UNK         0.0784 
     96 H96       -73.5174   25.3710  -75.9044 H         1 UNK         0.3213 
     97 H97       -73.3809   23.4933  -78.9905 H         1 UNK         0.0855 
     98 H98       -74.5046   22.8129  -76.2268 H         1 UNK         0.0814 
     99 H99       -73.3834   21.8194  -77.1463 H         1 UNK         0.0814 
    100 H100      -75.0059   22.0984  -77.7579 H         1 UNK         0.0814 
    101 H101      -75.6177   24.5748  -77.6179 H         1 UNK         0.3105 
    102 H102      -75.8277   27.5422  -79.6382 H         1 UNK         0.0547 
    103 H103      -76.6712   25.6228  -80.9824 H         1 UNK         0.0837 
    104 H104      -77.3802   24.9005  -79.5443 H         1 UNK         0.0837 
    105 H105      -77.9871   26.4383  -80.1514 H         1 UNK         0.0837 
    106 H106      -77.4324   26.3199  -77.5352 H         1 UNK         0.3020 
    107 H107      -76.2082   28.4305  -74.9572 H         1 UNK         0.1245 
    108 H108      -78.9344   28.4587  -74.9326 H         1 UNK         0.0781 
    109 H109      -78.7443   28.6945  -76.6368 H         1 UNK         0.0781 
    110 H110      -79.8394   30.7776  -73.9788 H         1 UNK         0.0836 
    111 H111      -78.5910   31.9017  -73.5010 H         1 UNK         0.0836 
    112 H112      -78.1419   26.3737  -74.9387 H         1 UNK         0.3022 
    113 H113      -76.0080   23.5914  -74.5362 H         1 UNK         0.0747 
    114 H114      -77.3035   23.4266  -72.3722 H         1 UNK         0.0793 
    115 H115      -75.9331   24.5200  -72.2763 H         1 UNK         0.0793 
    116 H116      -77.5497   25.1755  -72.4145 H         1 UNK         0.0793 
    117 H117      -78.8346   23.8880  -74.3258 H         1 UNK         0.3047 
    118 H118      -79.5343   23.4357  -77.8279 H         1 UNK         0.0822 
    119 H119      -81.0140   21.7763  -76.7541 H         1 UNK         0.0807 
    120 H120      -80.1613   21.9410  -75.2211 H         1 UNK         0.0807 
    121 H121      -79.3465   21.2454  -76.6165 H         1 UNK         0.0807 
    122 H122      -81.2645   24.1360  -75.6614 H         1 UNK         0.2946 
    123 H123      -81.3087   27.6557  -76.3167 H         1 UNK         0.1144 
    124 H124      -83.7084   27.0483  -76.2968 H         1 UNK         0.0793 
    125 H125      -83.3095   25.3387  -76.4405 H         1 UNK         0.0793 
    126 H126      -82.9188   26.4460  -77.7445 H         1 UNK         0.0793 
    127 H127      -81.3401   27.4960  -74.1335 H         1 UNK         0.2896 
@<TRIPOS>BOND
     1    1    2 1    
     2    1   67 1    
     3    1   68 1    
     4    1   69 1    
     5    2    3 2    
     6    2    4 am   BACKBONE|DICT|INTERRES
     7    4    5 1    
     8    4   70 1    
     9    5    6 1    
    10    5   65 1    
    11    5   71 1    
    12    6    7 1    
    13    6   72 1    
    14    6   73 1    
    15    7    8 1    
    16    8    9 1    
    17    8   74 1    
    18    8   75 1    
    19    9   10 ar   
    20    9   14 ar   
    21   10   11 ar   
    22   10   76 1    
    23   11   12 ar   
    24   11   48 1    
    25   12   13 ar   
    26   12   77 1    
    27   13   14 ar   
    28   13   15 1    
    29   14   78 1    
    30   15   16 1    
    31   15   79 1    
    32   15   80 1    
    33   16   17 1    
    34   17   18 1    
    35   17   81 1    
    36   17   82 1    
    37   18   19 1    
    38   18   22 1    
    39   18   83 1    
    40   19   20 am   BACKBONE|DICT|INTERRES
    41   19   21 2    
    42   20   84 1    
    43   20   85 1    
    44   22   23 am   BACKBONE|DICT|INTERRES
    45   22   86 1    
    46   23   24 2    
    47   23   25 1    
    48   25   26 1    
    49   25   27 1    
    50   25   87 1    
    51   26   88 1    
    52   26   89 1    
    53   26   90 1    
    54   27   28 am   BACKBONE|DICT|INTERRES
    55   27   91 1    
    56   28   29 2    
    57   28   30 1    
    58   30   31 1    
    59   30   32 1    
    60   30   92 1    
    61   31   93 1    
    62   31   94 1    
    63   31   95 1    
    64   32   33 am   BACKBONE|DICT|INTERRES
    65   32   96 1    
    66   33   34 2    
    67   33   35 1    
    68   35   36 1    
    69   35   37 1    
    70   35   97 1    
    71   36   98 1    
    72   36   99 1    
    73   36  100 1    
    74   37   38 am   BACKBONE|DICT|INTERRES
    75   37  101 1    
    76   38   39 2    
    77   38   40 1    
    78   40   41 1    
    79   40   42 1    
    80   40  102 1    
    81   41  103 1    
    82   41  104 1    
    83   41  105 1    
    84   42   43 am   BACKBONE|DICT|INTERRES
    85   42  106 1    
    86   43   44 2    
    87   43   45 1    
    88   45   46 1    
    89   45   49 1    
    90   45  107 1    
    91   46   47 1    
    92   46  108 1    
    93   46  109 1    
    94   47   48 1    
    95   48  110 1    
    96   48  111 1    
    97   49   50 am   BACKBONE|DICT|INTERRES
    98   49  112 1    
    99   50   51 2    
   100   50   52 1    
   101   52   53 1    
   102   52   54 1    
   103   52  113 1    
   104   53  114 1    
   105   53  115 1    
   106   53  116 1    
   107   54   55 am   BACKBONE|DICT|INTERRES
   108   54  117 1    
   109   55   56 2    
   110   55   57 1    
   111   57   58 1    
   112   57   59 1    
   113   57  118 1    
   114   58  119 1    
   115   58  120 1    
   116   58  121 1    
   117   59   60 am   BACKBONE|DICT|INTERRES
   118   59  122 1    
   119   60   61 2    
   120   60   62 1    
   121   62   63 1    
   122   62   64 1    
   123   62  123 1    
   124   63  124 1    
   125   63  125 1    
   126   63  126 1    
   127   64   65 am   BACKBONE|DICT|INTERRES
   128   64  127 1    
   129   65   66 2    
@<TRIPOS>SUBSTRUCTURE
     1 UNK         1 GROUP             0       ****    0 ROOT    
