@<TRIPOS>MOLECULE
3R135
127   129    1
SMALL
USER_CHARGES


@<TRIPOS>ATOM
      1 CA        -83.9690   28.2209  -75.5147 C.3       0 UNK        -0.1998 
      2 C         -82.9381   29.1767  -74.9336 C.2       0 UNK         0.4909 
      3 O         -82.7505   30.2723  -75.4626 O.2       0 UNK        -0.5240 
      4 N         -82.2643   28.7681  -73.8506 N.am      1 UNK        -0.4739 
      5 CA        -81.2150   29.5383  -73.1677 C.3       1 UNK         0.0864 
      6 C6        -80.9844   29.0376  -71.7194 C.3       11 UNK        -0.0881 
      7 S7        -80.6581   27.2436  -71.5926 S.3       11 UNK        -0.2682 
      8 C8        -79.8996   27.1438  -69.9422 C.3       11 UNK         0.0289 
      9 C9        -78.3853   27.0220  -70.0236 C.ar      11 UNK        -0.0687 
     10 C10       -77.7899   25.7571  -69.9926 C.ar      11 UNK        -0.0823 
     11 C11       -76.3992   25.6237  -70.0367 C.ar      11 UNK        -0.0830 
     12 C12       -75.6024   26.7687  -70.1083 C.ar      11 UNK        -0.1021 
     13 C13       -76.1838   28.0391  -70.1385 C.ar      11 UNK        -0.0753 
     14 C14       -77.5772   28.1619  -70.1000 C.ar      11 UNK        -0.0933 
     15 C15       -75.2915   29.2701  -70.1791 C.3       11 UNK         0.0166 
     16 S16       -74.5047   29.4779  -71.8050 S.3       11 UNK        -0.2615 
     17 C17       -75.8672   30.2408  -72.7509 C.3       11 UNK        -0.0865 
     18 CA        -75.4409   30.7318  -74.1585 C.3       10 UNK         0.0862 
     19 C         -74.4459   31.9309  -74.0908 C.2       10 UNK         0.5551 
     20 N         -73.2084   31.8021  -74.5583 N.am      10 UNK        -0.7319 
     21 O         -74.8117   33.0020  -73.6129 O.2       10 UNK        -0.5018 
     22 N         -75.0063   29.6084  -74.9989 N.am      10 UNK        -0.4509 
     23 C         -74.8874   29.6457  -76.3314 C.2       10 UNK         0.4899 
     24 O         -75.2219   30.6108  -77.0194 O.2       10 UNK        -0.4839 
     25 CA        -74.3007   28.3903  -77.0046 C.3       9 UNK         0.0222 
     26 CB        -73.6478   28.7044  -78.3668 C.3       9 UNK        -0.1966 
     27 N         -73.3736   27.6406  -76.1469 N.am      9 UNK        -0.4218 
     28 C         -72.2295   28.0770  -75.5938 C.2       9 UNK         0.5020 
     29 O         -71.8116   29.2319  -75.6913 O.2       9 UNK        -0.5274 
     30 CA        -71.4220   27.0505  -74.7834 C.3       8 UNK         0.0270 
     31 CB        -71.9162   27.0108  -73.3270 C.3       8 UNK        -0.1976 
     32 N         -71.5297   25.7133  -75.3716 N.am      8 UNK        -0.4313 
     33 C         -70.6776   25.1972  -76.2685 C.2       8 UNK         0.5041 
     34 O         -69.6302   25.7451  -76.6148 O.2       8 UNK        -0.5577 
     35 CA        -71.0602   23.8425  -76.8983 C.3       7 UNK         0.0284 
     36 CB        -70.5160   22.6811  -76.0509 C.3       7 UNK        -0.1958 
     37 N         -72.5071   23.6820  -77.0725 N.am      7 UNK        -0.4454 
     38 C         -73.2530   24.3915  -77.9314 C.2       7 UNK         0.5089 
     39 O         -72.7779   25.1530  -78.7730 O.2       7 UNK        -0.5125 
     40 CA        -74.7871   24.2602  -77.8264 C.3       6 UNK         0.0408 
     41 CB        -75.3322   23.4079  -78.9832 C.3       6 UNK        -0.1791 
     42 N         -75.3037   23.7294  -76.5562 N.am      6 UNK        -0.4762 
     43 C         -75.0803   24.2388  -75.3351 C.2       6 UNK         0.5007 
     44 O         -74.3167   25.1822  -75.1233 O.2       6 UNK        -0.5032 
     45 CA        -75.8584   23.5976  -74.1771 C.3       5 UNK         0.0783 
     46 C46       -75.4406   24.1555  -72.7912 C.3       11 UNK        -0.0857 
     47 S47       -76.1957   23.2189  -71.4209 S.3       11 UNK        -0.2512 
     48 C48       -75.7541   24.2458  -69.9855 C.3       11 UNK         0.0225 
     49 N         -77.2770   23.8035  -74.4606 N.am      5 UNK        -0.4615 
     50 C         -78.2291   22.8658  -74.3810 C.2       4 UNK         0.5053 
     51 O         -78.0212   21.7003  -74.0427 O.2       4 UNK        -0.5105 
     52 CA        -79.6603   23.2897  -74.7598 C.3       4 UNK         0.0263 
     53 CB        -80.4247   23.7495  -73.5077 C.3       4 UNK        -0.1981 
     54 N         -79.7040   24.3526  -75.7670 N.am      4 UNK        -0.4224 
     55 C         -79.2483   24.2421  -77.0232 C.2       3 UNK         0.4895 
     56 O         -78.8150   23.1945  -77.5037 O.2       3 UNK        -0.5091 
     57 CA        -79.2551   25.5144  -77.8907 C.3       3 UNK         0.0250 
     58 CB        -80.4412   25.4879  -78.8683 C.3       3 UNK        -0.1996 
     59 N         -79.2747   26.7829  -77.1490 N.am      3 UNK        -0.4254 
     60 C         -78.3279   27.2011  -76.2955 C.2       2 UNK         0.5004 
     61 O         -77.3797   26.5118  -75.9240 O.2       2 UNK        -0.5226 
     62 CA        -78.4914   28.6177  -75.7456 C.3       2 UNK         0.0269 
     63 CB        -78.5234   29.6742  -76.8681 C.3       2 UNK        -0.1926 
     64 N         -79.6901   28.7020  -74.9173 N.am      2 UNK        -0.4687 
     65 C         -79.8902   29.6147  -73.9579 C.2       1 UNK         0.5165 
     66 O         -79.0800   30.5007  -73.6825 O.2       1 UNK        -0.5079 
     67 H67       -84.9558   28.6830  -75.5048 H         1 UNK         0.0900 
     68 H68       -83.7167   27.9783  -76.5467 H         1 UNK         0.0900 
     69 H69       -84.0254   27.2896  -74.9512 H         1 UNK         0.0900 
     70 H70       -82.4598   27.8623  -73.4465 H         1 UNK         0.2959 
     71 H71       -81.5681   30.5698  -73.0958 H         1 UNK         0.1079 
     72 H72       -81.8698   29.2541  -71.1196 H         1 UNK         0.0837 
     73 H73       -80.1708   29.5927  -71.2485 H         1 UNK         0.0837 
     74 H74       -80.3139   26.2770  -69.4249 H         1 UNK         0.0685 
     75 H75       -80.1783   28.0099  -69.3400 H         1 UNK         0.0685 
     76 H76       -78.4086   24.8718  -69.9342 H         1 UNK         0.1434 
     77 H77       -74.5251   26.6767  -70.1379 H         1 UNK         0.1329 
     78 H78       -78.0317   29.1427  -70.1173 H         1 UNK         0.1335 
     79 H79       -74.5100   29.1676  -69.4248 H         1 UNK         0.0680 
     80 H80       -75.8492   30.1707  -69.9173 H         1 UNK         0.0680 
     81 H81       -76.2881   31.0680  -72.1763 H         1 UNK         0.1032 
     82 H82       -76.6712   29.5088  -72.8415 H         1 UNK         0.1032 
     83 H83       -76.3405   31.1338  -74.6291 H         1 UNK         0.0461 
     84 H84       -72.8908   30.9238  -74.9503 H         1 UNK         0.3453 
     85 H85       -72.5791   32.5872  -74.5110 H         1 UNK         0.3453 
     86 H86       -74.6844   28.7890  -74.5052 H         1 UNK         0.2984 
     87 H87       -75.1445   27.7242  -77.1881 H         1 UNK         0.0554 
     88 H88       -74.3718   29.1336  -79.0603 H         1 UNK         0.0847 
     89 H89       -73.2503   27.8044  -78.8348 H         1 UNK         0.0847 
     90 H90       -72.8299   29.4186  -78.2668 H         1 UNK         0.0847 
     91 H91       -73.6766   26.6987  -75.9070 H         1 UNK         0.3141 
     92 H92       -70.3778   27.3703  -74.7794 H         1 UNK         0.0743 
     93 H93       -71.3295   26.3134  -72.7290 H         1 UNK         0.0784 
     94 H94       -71.8270   27.9925  -72.8595 H         1 UNK         0.0784 
     95 H95       -72.9633   26.7124  -73.2569 H         1 UNK         0.0784 
     96 H96       -72.3957   25.2170  -75.1855 H         1 UNK         0.3213 
     97 H97       -70.5935   23.7941  -77.8848 H         1 UNK         0.0855 
     98 H98       -70.9576   22.6642  -75.0537 H         1 UNK         0.0814 
     99 H99       -69.4353   22.7640  -75.9265 H         1 UNK         0.0814 
    100 H100      -70.7125   21.7184  -76.5231 H         1 UNK         0.0814 
    101 H101      -72.9824   23.0588  -76.4367 H         1 UNK         0.3105 
    102 H102      -75.1943   25.2678  -77.9324 H         1 UNK         0.0547 
    103 H103      -74.9974   22.3723  -78.9133 H         1 UNK         0.0837 
    104 H104      -74.9973   23.7943  -79.9469 H         1 UNK         0.0837 
    105 H105      -76.4222   23.4093  -78.9996 H         1 UNK         0.0837 
    106 H106      -75.9690   22.9721  -76.6345 H         1 UNK         0.3020 
    107 H107      -75.6188   22.5319  -74.2008 H         1 UNK         0.1245 
    108 H108      -75.7178   25.2083  -72.7091 H         1 UNK         0.0781 
    109 H109      -74.3572   24.1094  -72.6646 H         1 UNK         0.0781 
    110 H110      -74.6673   24.3225  -69.9247 H         1 UNK         0.0836 
    111 H111      -76.0760   23.7371  -69.0758 H         1 UNK         0.0836 
    112 H112      -77.5133   24.7240  -74.8177 H         1 UNK         0.3022 
    113 H113      -80.1670   22.4154  -75.1740 H         1 UNK         0.0747 
    114 H114      -81.4589   24.0039  -73.7401 H         1 UNK         0.0793 
    115 H115      -80.4473   22.9608  -72.7543 H         1 UNK         0.0793 
    116 H116      -79.9568   24.6213  -73.0484 H         1 UNK         0.0793 
    117 H117      -80.0473   25.2509  -75.4646 H         1 UNK         0.3047 
    118 H118      -78.3320   25.4983  -78.4744 H         1 UNK         0.0822 
    119 H119      -80.3971   26.3205  -79.5707 H         1 UNK         0.0807 
    120 H120      -81.3970   25.5380  -78.3451 H         1 UNK         0.0807 
    121 H121      -80.4412   24.5705  -79.4591 H         1 UNK         0.0807 
    122 H122      -80.0145   27.4259  -77.3919 H         1 UNK         0.2946 
    123 H123      -77.6221   28.8072  -75.1143 H         1 UNK         0.1144 
    124 H124      -78.3959   30.6788  -76.4642 H         1 UNK         0.0793 
    125 H125      -79.4631   29.6570  -77.4207 H         1 UNK         0.0793 
    126 H126      -77.7184   29.5142  -77.5863 H         1 UNK         0.0793 
    127 H127      -80.3956   27.9925  -75.0516 H         1 UNK         0.2896 
@<TRIPOS>BOND
     1    1    2 1    
     2    1   67 1    
     3    1   68 1    
     4    1   69 1    
     5    2    3 2    
     6    2    4 am   BACKBONE|DICT|INTERRES
     7    4    5 1    
     8    4   70 1    
     9    5    6 1    
    10    5   65 1    
    11    5   71 1    
    12    6    7 1    
    13    6   72 1    
    14    6   73 1    
    15    7    8 1    
    16    8    9 1    
    17    8   74 1    
    18    8   75 1    
    19    9   10 ar   
    20    9   14 ar   
    21   10   11 ar   
    22   10   76 1    
    23   11   12 ar   
    24   11   48 1    
    25   12   13 ar   
    26   12   77 1    
    27   13   14 ar   
    28   13   15 1    
    29   14   78 1    
    30   15   16 1    
    31   15   79 1    
    32   15   80 1    
    33   16   17 1    
    34   17   18 1    
    35   17   81 1    
    36   17   82 1    
    37   18   19 1    
    38   18   22 1    
    39   18   83 1    
    40   19   20 am   BACKBONE|DICT|INTERRES
    41   19   21 2    
    42   20   84 1    
    43   20   85 1    
    44   22   23 am   BACKBONE|DICT|INTERRES
    45   22   86 1    
    46   23   24 2    
    47   23   25 1    
    48   25   26 1    
    49   25   27 1    
    50   25   87 1    
    51   26   88 1    
    52   26   89 1    
    53   26   90 1    
    54   27   28 am   BACKBONE|DICT|INTERRES
    55   27   91 1    
    56   28   29 2    
    57   28   30 1    
    58   30   31 1    
    59   30   32 1    
    60   30   92 1    
    61   31   93 1    
    62   31   94 1    
    63   31   95 1    
    64   32   33 am   BACKBONE|DICT|INTERRES
    65   32   96 1    
    66   33   34 2    
    67   33   35 1    
    68   35   36 1    
    69   35   37 1    
    70   35   97 1    
    71   36   98 1    
    72   36   99 1    
    73   36  100 1    
    74   37   38 am   BACKBONE|DICT|INTERRES
    75   37  101 1    
    76   38   39 2    
    77   38   40 1    
    78   40   41 1    
    79   40   42 1    
    80   40  102 1    
    81   41  103 1    
    82   41  104 1    
    83   41  105 1    
    84   42   43 am   BACKBONE|DICT|INTERRES
    85   42  106 1    
    86   43   44 2    
    87   43   45 1    
    88   45   46 1    
    89   45   49 1    
    90   45  107 1    
    91   46   47 1    
    92   46  108 1    
    93   46  109 1    
    94   47   48 1    
    95   48  110 1    
    96   48  111 1    
    97   49   50 am   BACKBONE|DICT|INTERRES
    98   49  112 1    
    99   50   51 2    
   100   50   52 1    
   101   52   53 1    
   102   52   54 1    
   103   52  113 1    
   104   53  114 1    
   105   53  115 1    
   106   53  116 1    
   107   54   55 am   BACKBONE|DICT|INTERRES
   108   54  117 1    
   109   55   56 2    
   110   55   57 1    
   111   57   58 1    
   112   57   59 1    
   113   57  118 1    
   114   58  119 1    
   115   58  120 1    
   116   58  121 1    
   117   59   60 am   BACKBONE|DICT|INTERRES
   118   59  122 1    
   119   60   61 2    
   120   60   62 1    
   121   62   63 1    
   122   62   64 1    
   123   62  123 1    
   124   63  124 1    
   125   63  125 1    
   126   63  126 1    
   127   64   65 am   BACKBONE|DICT|INTERRES
   128   64  127 1    
   129   65   66 2    
@<TRIPOS>SUBSTRUCTURE
     1 UNK         1 GROUP             0       ****    0 ROOT    
