@<TRIPOS>MOLECULE
3R135
127   129    1
SMALL
USER_CHARGES


@<TRIPOS>ATOM
      1 CA        -84.6750   24.9577  -71.0124 C.3       0 UNK        -0.1998 
      2 C         -84.2062   26.0567  -71.9541 C.2       0 UNK         0.4909 
      3 O         -84.9996   26.5603  -72.7497 O.2       0 UNK        -0.5240 
      4 N         -82.9227   26.4333  -71.8686 N.am      1 UNK        -0.4739 
      5 CA        -82.2916   27.4564  -72.7159 C.3       1 UNK         0.0864 
      6 C6        -80.9541   27.9420  -72.1008 C.3       11 UNK        -0.0881 
      7 S7        -80.6504   29.7171  -72.3848 S.3       11 UNK        -0.2682 
      8 C8        -79.4820   30.0933  -71.0383 C.3       11 UNK         0.0289 
      9 C9        -78.1081   29.5002  -71.3133 C.ar      11 UNK        -0.0687 
     10 C10       -77.7980   28.2047  -70.8896 C.ar      11 UNK        -0.0823 
     11 C11       -76.5532   27.6370  -71.1829 C.ar      11 UNK        -0.0830 
     12 C12       -75.6022   28.3964  -71.8736 C.ar      11 UNK        -0.1021 
     13 C13       -75.8866   29.7072  -72.2693 C.ar      11 UNK        -0.0753 
     14 C14       -77.1444   30.2500  -71.9924 C.ar      11 UNK        -0.0933 
     15 C15       -74.8269   30.5545  -72.9579 C.3       11 UNK         0.0166 
     16 S16       -75.2811   30.9580  -74.6718 S.3       11 UNK        -0.2615 
     17 C17       -73.8955   32.0464  -75.1468 C.3       11 UNK        -0.0865 
     18 CA        -72.9680   31.4164  -76.2264 C.3       10 UNK         0.0862 
     19 C         -71.9471   32.4413  -76.8118 C.2       10 UNK         0.5551 
     20 N         -70.7616   32.0211  -77.2372 N.am      10 UNK        -0.7319 
     21 O         -72.2402   33.6305  -76.9132 O.2       10 UNK        -0.5018 
     22 N         -72.3749   30.1283  -75.8186 N.am      10 UNK        -0.4509 
     23 C         -71.5203   29.9279  -74.8098 C.2       10 UNK         0.4899 
     24 O         -71.1714   30.7984  -74.0110 O.2       10 UNK        -0.4839 
     25 CA        -70.9539   28.5117  -74.6600 C.3       9 UNK         0.0222 
     26 CB        -69.4116   28.5444  -74.6420 C.3       9 UNK        -0.1966 
     27 N         -71.4757   27.9599  -73.4128 N.am      9 UNK        -0.4218 
     28 C         -71.6600   26.6780  -73.0670 C.2       9 UNK         0.5020 
     29 O         -72.1534   26.3871  -71.9778 O.2       9 UNK        -0.5274 
     30 CA        -71.2559   25.5448  -74.0338 C.3       8 UNK         0.0270 
     31 CB        -71.1348   24.1797  -73.3276 C.3       8 UNK        -0.1976 
     32 N         -72.2350   25.4304  -75.1121 N.am      8 UNK        -0.4313 
     33 C         -71.9354   25.2135  -76.4017 C.2       8 UNK         0.5041 
     34 O         -70.7833   25.0698  -76.8140 O.2       8 UNK        -0.5577 
     35 CA        -73.0919   25.1419  -77.4221 C.3       7 UNK         0.0284 
     36 CB        -73.3673   23.6816  -77.8165 C.3       7 UNK        -0.1958 
     37 N         -74.3398   25.7467  -76.9574 N.am      7 UNK        -0.4454 
     38 C         -74.5136   27.0405  -76.6639 C.2       7 UNK         0.5089 
     39 O         -73.6735   27.9075  -76.9029 O.2       7 UNK        -0.5125 
     40 CA        -75.8164   27.4263  -75.9371 C.3       6 UNK         0.0408 
     41 CB        -76.7967   28.1030  -76.9045 C.3       6 UNK        -0.1791 
     42 N         -76.4878   26.3167  -75.2469 N.am      6 UNK        -0.4762 
     43 C         -75.9507   25.5926  -74.2510 C.2       6 UNK         0.5007 
     44 O         -74.7949   25.7302  -73.8540 O.2       6 UNK        -0.5032 
     45 CA        -76.8405   24.4980  -73.6394 C.3       5 UNK         0.0783 
     46 C46       -77.9370   25.1068  -72.7238 C.3       11 UNK        -0.0857 
     47 S47       -77.5414   24.9953  -70.9471 S.3       11 UNK        -0.2512 
     48 C48       -76.2023   26.2219  -70.7293 C.3       11 UNK         0.0225 
     49 N         -77.4038   23.6815  -74.7149 N.am      5 UNK        -0.4615 
     50 C         -76.7385   22.7071  -75.3515 C.2       4 UNK         0.5053 
     51 O         -75.6243   22.3092  -75.0135 O.2       4 UNK        -0.5105 
     52 CA        -77.4134   22.0778  -76.5851 C.3       4 UNK         0.0263 
     53 CB        -78.1707   20.8005  -76.1885 C.3       4 UNK        -0.1981 
     54 N         -78.3314   22.9883  -77.2741 N.am      4 UNK        -0.4224 
     55 C         -77.9671   24.1181  -77.8984 C.2       3 UNK         0.4895 
     56 O         -76.7988   24.4768  -78.0353 O.2       3 UNK        -0.5091 
     57 CA        -79.1004   25.0289  -78.4064 C.3       3 UNK         0.0250 
     58 CB        -79.4313   24.7055  -79.8717 C.3       3 UNK        -0.1996 
     59 N         -80.3261   24.9614  -77.6004 N.am      3 UNK        -0.4254 
     60 C         -80.4092   25.2415  -76.2915 C.2       2 UNK         0.5004 
     61 O         -79.4464   25.5913  -75.6020 O.2       2 UNK        -0.5226 
     62 CA        -81.7797   24.9897  -75.6423 C.3       2 UNK         0.0269 
     63 CB        -81.9949   23.4810  -75.4284 C.3       2 UNK        -0.1926 
     64 N         -81.9271   25.6605  -74.3509 N.am      2 UNK        -0.4687 
     65 C         -82.1081   26.9772  -74.1752 C.2       1 UNK         0.5165 
     66 O         -82.1728   27.7870  -75.1017 O.2       1 UNK        -0.5079 
     67 H67       -85.0407   24.1051  -71.5840 H         1 UNK         0.0900 
     68 H68       -85.4886   25.3224  -70.3860 H         1 UNK         0.0900 
     69 H69       -83.8746   24.6100  -70.3595 H         1 UNK         0.0900 
     70 H70       -82.3224   25.9885  -71.1885 H         1 UNK         0.2959 
     71 H71       -82.9850   28.3003  -72.7493 H         1 UNK         0.1079 
     72 H72       -80.1047   27.3654  -72.4699 H         1 UNK         0.0837 
     73 H73       -80.9664   27.7904  -71.0203 H         1 UNK         0.0837 
     74 H74       -79.4037   31.1767  -70.9357 H         1 UNK         0.0685 
     75 H75       -79.8750   29.7280  -70.0884 H         1 UNK         0.0685 
     76 H76       -78.5341   27.6302  -70.3449 H         1 UNK         0.1434 
     77 H77       -74.6322   27.9687  -72.0913 H         1 UNK         0.1329 
     78 H78       -77.3723   31.2586  -72.3095 H         1 UNK         0.1335 
     79 H79       -74.6901   31.4777  -72.3930 H         1 UNK         0.0680 
     80 H80       -73.8644   30.0425  -72.9553 H         1 UNK         0.0680 
     81 H81       -73.3204   32.3377  -74.2667 H         1 UNK         0.1032 
     82 H82       -74.3411   32.9690  -75.5230 H         1 UNK         0.1032 
     83 H83       -73.6048   31.1668  -77.0759 H         1 UNK         0.0461 
     84 H84       -70.5166   31.0462  -77.1793 H         1 UNK         0.3453 
     85 H85       -70.1104   32.6859  -77.6241 H         1 UNK         0.3453 
     86 H86       -72.6811   29.3245  -76.3651 H         1 UNK         0.2984 
     87 H87       -71.2856   27.9146  -75.5087 H         1 UNK         0.0554 
     88 H88       -69.0250   29.0263  -75.5409 H         1 UNK         0.0847 
     89 H89       -69.0309   29.1047  -73.7870 H         1 UNK         0.0847 
     90 H90       -68.9709   27.5503  -74.6039 H         1 UNK         0.0847 
     91 H91       -71.7537   28.6679  -72.7471 H         1 UNK         0.3141 
     92 H92       -70.2740   25.7860  -74.4378 H         1 UNK         0.0743 
     93 H93       -70.4325   24.2308  -72.4946 H         1 UNK         0.0784 
     94 H94       -72.0942   23.8457  -72.9299 H         1 UNK         0.0784 
     95 H95       -70.7718   23.4122  -74.0114 H         1 UNK         0.0784 
     96 H96       -73.2064   25.5572  -74.8295 H         1 UNK         0.3213 
     97 H97       -72.7723   25.6861  -78.3131 H         1 UNK         0.0855 
     98 H98       -72.4667   23.2044  -78.2053 H         1 UNK         0.0814 
     99 H99       -74.1290   23.6165  -78.5939 H         1 UNK         0.0814 
    100 H100      -73.7072   23.0923  -76.9638 H         1 UNK         0.0814 
    101 H101      -75.1312   25.1270  -76.8307 H         1 UNK         0.3105 
    102 H102      -75.5456   28.1470  -75.1652 H         1 UNK         0.0547 
    103 H103      -76.3639   29.0174  -77.3125 H         1 UNK         0.0837 
    104 H104      -77.0378   27.4556  -77.7466 H         1 UNK         0.0837 
    105 H105      -77.7263   28.3793  -76.4064 H         1 UNK         0.0837 
    106 H106      -77.4519   26.1315  -75.5063 H         1 UNK         0.3020 
    107 H107      -76.1952   23.8536  -73.0370 H         1 UNK         0.1245 
    108 H108      -78.8758   24.5657  -72.8536 H         1 UNK         0.0781 
    109 H109      -78.1750   26.1397  -72.9843 H         1 UNK         0.0781 
    110 H110      -75.3109   25.8614  -71.2446 H         1 UNK         0.0836 
    111 H111      -75.9400   26.2584  -69.6714 H         1 UNK         0.0836 
    112 H112      -78.2892   24.0020  -75.0891 H         1 UNK         0.3022 
    113 H113      -76.6223   21.8058  -77.2874 H         1 UNK         0.0747 
    114 H114      -78.5865   20.2975  -77.0618 H         1 UNK         0.0793 
    115 H115      -77.5055   20.0905  -75.6947 H         1 UNK         0.0793 
    116 H116      -78.9896   21.0127  -75.4997 H         1 UNK         0.0793 
    117 H117      -79.3148   22.7674  -77.2242 H         1 UNK         0.3047 
    118 H118      -78.7404   26.0571  -78.3595 H         1 UNK         0.0822 
    119 H119      -80.1618   25.4053  -80.2783 H         1 UNK         0.0807 
    120 H120      -79.8316   23.6971  -79.9841 H         1 UNK         0.0807 
    121 H121      -78.5394   24.7735  -80.4967 H         1 UNK         0.0807 
    122 H122      -81.1620   24.6671  -78.0857 H         1 UNK         0.2946 
    123 H123      -82.5529   25.3697  -76.3143 H         1 UNK         0.1144 
    124 H124      -82.9701   23.2796  -74.9843 H         1 UNK         0.0793 
    125 H125      -81.2346   23.0529  -74.7733 H         1 UNK         0.0793 
    126 H126      -81.9575   22.9353  -76.3721 H         1 UNK         0.0793 
    127 H127      -81.8791   25.0770  -73.5294 H         1 UNK         0.2896 
@<TRIPOS>BOND
     1    1    2 1    
     2    1   67 1    
     3    1   68 1    
     4    1   69 1    
     5    2    3 2    
     6    2    4 am   BACKBONE|DICT|INTERRES
     7    4    5 1    
     8    4   70 1    
     9    5    6 1    
    10    5   65 1    
    11    5   71 1    
    12    6    7 1    
    13    6   72 1    
    14    6   73 1    
    15    7    8 1    
    16    8    9 1    
    17    8   74 1    
    18    8   75 1    
    19    9   10 ar   
    20    9   14 ar   
    21   10   11 ar   
    22   10   76 1    
    23   11   12 ar   
    24   11   48 1    
    25   12   13 ar   
    26   12   77 1    
    27   13   14 ar   
    28   13   15 1    
    29   14   78 1    
    30   15   16 1    
    31   15   79 1    
    32   15   80 1    
    33   16   17 1    
    34   17   18 1    
    35   17   81 1    
    36   17   82 1    
    37   18   19 1    
    38   18   22 1    
    39   18   83 1    
    40   19   20 am   BACKBONE|DICT|INTERRES
    41   19   21 2    
    42   20   84 1    
    43   20   85 1    
    44   22   23 am   BACKBONE|DICT|INTERRES
    45   22   86 1    
    46   23   24 2    
    47   23   25 1    
    48   25   26 1    
    49   25   27 1    
    50   25   87 1    
    51   26   88 1    
    52   26   89 1    
    53   26   90 1    
    54   27   28 am   BACKBONE|DICT|INTERRES
    55   27   91 1    
    56   28   29 2    
    57   28   30 1    
    58   30   31 1    
    59   30   32 1    
    60   30   92 1    
    61   31   93 1    
    62   31   94 1    
    63   31   95 1    
    64   32   33 am   BACKBONE|DICT|INTERRES
    65   32   96 1    
    66   33   34 2    
    67   33   35 1    
    68   35   36 1    
    69   35   37 1    
    70   35   97 1    
    71   36   98 1    
    72   36   99 1    
    73   36  100 1    
    74   37   38 am   BACKBONE|DICT|INTERRES
    75   37  101 1    
    76   38   39 2    
    77   38   40 1    
    78   40   41 1    
    79   40   42 1    
    80   40  102 1    
    81   41  103 1    
    82   41  104 1    
    83   41  105 1    
    84   42   43 am   BACKBONE|DICT|INTERRES
    85   42  106 1    
    86   43   44 2    
    87   43   45 1    
    88   45   46 1    
    89   45   49 1    
    90   45  107 1    
    91   46   47 1    
    92   46  108 1    
    93   46  109 1    
    94   47   48 1    
    95   48  110 1    
    96   48  111 1    
    97   49   50 am   BACKBONE|DICT|INTERRES
    98   49  112 1    
    99   50   51 2    
   100   50   52 1    
   101   52   53 1    
   102   52   54 1    
   103   52  113 1    
   104   53  114 1    
   105   53  115 1    
   106   53  116 1    
   107   54   55 am   BACKBONE|DICT|INTERRES
   108   54  117 1    
   109   55   56 2    
   110   55   57 1    
   111   57   58 1    
   112   57   59 1    
   113   57  118 1    
   114   58  119 1    
   115   58  120 1    
   116   58  121 1    
   117   59   60 am   BACKBONE|DICT|INTERRES
   118   59  122 1    
   119   60   61 2    
   120   60   62 1    
   121   62   63 1    
   122   62   64 1    
   123   62  123 1    
   124   63  124 1    
   125   63  125 1    
   126   63  126 1    
   127   64   65 am   BACKBONE|DICT|INTERRES
   128   64  127 1    
   129   65   66 2    
@<TRIPOS>SUBSTRUCTURE
     1 UNK         1 GROUP             0       ****    0 ROOT    
