@<TRIPOS>MOLECULE
3R135
127   129    1
SMALL
USER_CHARGES


@<TRIPOS>ATOM
      1 CA        -83.4488   24.3580  -71.6786 C.3       0 UNK        -0.1998 
      2 C         -82.0023   24.0628  -71.2901 C.2       0 UNK         0.4909 
      3 O         -81.7388   23.0195  -70.6958 O.2       0 UNK        -0.5240 
      4 N         -81.0312   24.9367  -71.5946 N.am      1 UNK        -0.4739 
      5 CA        -81.1722   26.2140  -72.3126 C.3       1 UNK         0.0864 
      6 C6        -79.9443   27.1323  -72.0993 C.3       11 UNK        -0.0881 
      7 S7        -79.5725   27.4765  -70.3437 S.3       11 UNK        -0.2682 
      8 C8        -79.9378   29.2575  -70.2010 C.3       11 UNK         0.0289 
      9 C9        -78.9608   30.1053  -71.0048 C.ar      11 UNK        -0.0687 
     10 C10       -79.3060   30.5423  -72.2862 C.ar      11 UNK        -0.0823 
     11 C11       -78.3966   31.2631  -73.0614 C.ar      11 UNK        -0.0830 
     12 C12       -77.1602   31.6175  -72.5171 C.ar      11 UNK        -0.1021 
     13 C13       -76.8102   31.2118  -71.2249 C.ar      11 UNK        -0.0753 
     14 C14       -77.7111   30.4458  -70.4765 C.ar      11 UNK        -0.0933 
     15 C15       -75.4660   31.6183  -70.6370 C.3       11 UNK         0.0166 
     16 S16       -74.0641   31.0218  -71.6332 S.3       11 UNK        -0.2615 
     17 C17       -74.0491   29.2453  -71.2192 C.3       11 UNK        -0.0865 
     18 CA        -72.7871   28.5389  -71.7880 C.3       10 UNK         0.0862 
     19 C         -72.5386   27.1319  -71.1699 C.2       10 UNK         0.5551 
     20 N         -71.9232   26.1995  -71.8888 N.am      10 UNK        -0.7319 
     21 O         -72.8813   26.8820  -70.0168 O.2       10 UNK        -0.5018 
     22 N         -72.8227   28.4856  -73.2565 N.am      10 UNK        -0.4509 
     23 C         -72.0070   29.1360  -74.0917 C.2       10 UNK         0.4899 
     24 O         -71.1340   29.9258  -73.7264 O.2       10 UNK        -0.4839 
     25 CA        -72.1935   28.8304  -75.5934 C.3       9 UNK         0.0222 
     26 CB        -71.0610   29.4103  -76.4668 C.3       9 UNK        -0.1966 
     27 N         -72.3775   27.4010  -75.8895 N.am      9 UNK        -0.4218 
     28 C         -71.5629   26.3918  -75.5388 C.2       9 UNK         0.5020 
     29 O         -70.5488   26.5342  -74.8541 O.2       9 UNK        -0.5274 
     30 CA        -71.9363   24.9699  -75.9925 C.3       8 UNK         0.0270 
     31 CB        -72.4068   24.1334  -74.7936 C.3       8 UNK        -0.1976 
     32 N         -72.9510   24.9217  -77.0500 N.am      8 UNK        -0.4313 
     33 C         -72.6791   25.1098  -78.3488 C.2       8 UNK         0.5041 
     34 O         -71.5720   25.4429  -78.7733 O.2       8 UNK        -0.5577 
     35 CA        -73.8198   24.8744  -79.3456 C.3       7 UNK         0.0284 
     36 CB        -74.1116   23.3713  -79.5014 C.3       7 UNK        -0.1958 
     37 N         -75.0398   25.5725  -78.9373 N.am      7 UNK        -0.4454 
     38 C         -75.6500   26.5126  -79.6688 C.2       7 UNK         0.5089 
     39 O         -75.2427   26.9017  -80.7645 O.2       7 UNK        -0.5125 
     40 CA        -76.9471   27.1233  -79.1115 C.3       6 UNK         0.0408 
     41 CB        -78.1749   26.3975  -79.6843 C.3       6 UNK        -0.1791 
     42 N         -77.0520   27.1693  -77.6508 N.am      6 UNK        -0.4762 
     43 C         -76.2817   27.9252  -76.8537 C.2       6 UNK         0.5007 
     44 O         -75.2444   28.4753  -77.2223 O.2       6 UNK        -0.5032 
     45 CA        -76.7678   28.1052  -75.4038 C.3       5 UNK         0.0783 
     46 C46       -78.0599   28.9619  -75.3387 C.3       11 UNK        -0.0857 
     47 S47       -77.7271   30.7246  -75.7090 S.3       11 UNK        -0.2512 
     48 C48       -78.7459   31.6297  -74.4957 C.3       11 UNK         0.0225 
     49 N         -76.9426   26.7882  -74.7906 N.am      5 UNK        -0.4615 
     50 C         -75.9837   26.1589  -74.0975 C.2       4 UNK         0.5053 
     51 O         -74.9135   26.6810  -73.7906 O.2       4 UNK        -0.5105 
     52 CA        -76.2233   24.6803  -73.7302 C.3       4 UNK         0.0263 
     53 CB        -76.8747   24.5418  -72.3457 C.3       4 UNK        -0.1981 
     54 N         -77.0086   23.9469  -74.7251 N.am      4 UNK        -0.4224 
     55 C         -76.6715   23.8049  -76.0154 C.2       3 UNK         0.4895 
     56 O         -75.6092   24.2045  -76.4930 O.2       3 UNK        -0.5091 
     57 CA        -77.7172   23.1711  -76.9492 C.3       3 UNK         0.0250 
     58 CB        -77.4374   21.6706  -77.1217 C.3       3 UNK        -0.1996 
     59 N         -79.1099   23.3649  -76.5213 N.am      3 UNK        -0.4254 
     60 C         -79.7083   24.5453  -76.2957 C.2       2 UNK         0.5004 
     61 O         -79.1385   25.6324  -76.4158 O.2       2 UNK        -0.5226 
     62 CA        -81.1557   24.5144  -75.7818 C.3       2 UNK         0.0269 
     63 CB        -81.8692   23.1607  -75.9797 C.3       2 UNK        -0.1926 
     64 N         -81.1321   24.8366  -74.3560 N.am      2 UNK        -0.4687 
     65 C         -81.4117   26.0362  -73.8296 C.2       1 UNK         0.5165 
     66 O         -81.8317   26.9896  -74.4855 O.2       1 UNK        -0.5079 
     67 H67       -83.5755   24.3436  -72.7603 H         1 UNK         0.0900 
     68 H68       -84.1147   23.6036  -71.2600 H         1 UNK         0.0900 
     69 H69       -83.7720   25.3252  -71.2956 H         1 UNK         0.0900 
     70 H70       -80.0955   24.7326  -71.2746 H         1 UNK         0.2959 
     71 H71       -82.0422   26.7395  -71.9148 H         1 UNK         0.1079 
     72 H72       -79.0502   26.7089  -72.5555 H         1 UNK         0.0837 
     73 H73       -80.1098   28.0695  -72.6237 H         1 UNK         0.0837 
     74 H74       -80.9647   29.4438  -70.5198 H         1 UNK         0.0685 
     75 H75       -79.8893   29.5435  -69.1493 H         1 UNK         0.0685 
     76 H76       -80.2736   30.2906  -72.6979 H         1 UNK         0.1434 
     77 H77       -76.4585   32.1895  -73.1092 H         1 UNK         0.1329 
     78 H78       -77.4437   30.1145  -69.4823 H         1 UNK         0.1335 
     79 H79       -75.4218   32.7073  -70.5912 H         1 UNK         0.0680 
     80 H80       -75.3590   31.2641  -69.6105 H         1 UNK         0.0680 
     81 H81       -74.0864   29.1602  -70.1318 H         1 UNK         0.1032 
     82 H82       -74.9589   28.7752  -71.5978 H         1 UNK         0.1032 
     83 H83       -71.9197   29.1185  -71.4677 H         1 UNK         0.0461 
     84 H84       -71.5843   26.4114  -72.8169 H         1 UNK         0.3453 
     85 H85       -71.7544   25.2947  -71.4801 H         1 UNK         0.3453 
     86 H86       -73.5032   27.8267  -73.6319 H         1 UNK         0.2984 
     87 H87       -73.1186   29.3281  -75.8849 H         1 UNK         0.0554 
     88 H88       -70.9840   30.4913  -76.3433 H         1 UNK         0.0847 
     89 H89       -71.2392   29.2186  -77.5249 H         1 UNK         0.0847 
     90 H90       -70.0922   28.9822  -76.2068 H         1 UNK         0.0847 
     91 H91       -73.2041   27.1726  -76.4248 H         1 UNK         0.3141 
     92 H92       -71.0256   24.5056  -76.3776 H         1 UNK         0.0743 
     93 H93       -73.1847   24.6486  -74.2354 H         1 UNK         0.0784 
     94 H94       -72.7901   23.1600  -75.1003 H         1 UNK         0.0784 
     95 H95       -71.5833   23.9556  -74.1009 H         1 UNK         0.0784 
     96 H96       -73.8904   24.6327  -76.7787 H         1 UNK         0.3213 
     97 H97       -73.4730   25.2422  -80.3137 H         1 UNK         0.0855 
     98 H98       -74.4551   22.9203  -78.5702 H         1 UNK         0.0814 
     99 H99       -73.2165   22.8315  -79.8135 H         1 UNK         0.0814 
    100 H100      -74.8760   23.1951  -80.2582 H         1 UNK         0.0814 
    101 H101      -75.4324   25.3139  -78.0372 H         1 UNK         0.3105 
    102 H102      -76.9837   28.1567  -79.4630 H         1 UNK         0.0547 
    103 H103      -78.1538   26.3952  -80.7750 H         1 UNK         0.0837 
    104 H104      -78.2219   25.3591  -79.3587 H         1 UNK         0.0837 
    105 H105      -79.1017   26.8847  -79.3810 H         1 UNK         0.0837 
    106 H106      -77.8622   26.7058  -77.2442 H         1 UNK         0.3020 
    107 H107      -75.9892   28.6497  -74.8630 H         1 UNK         0.1245 
    108 H108      -78.4880   28.8810  -74.3410 H         1 UNK         0.0781 
    109 H109      -78.8298   28.5894  -76.0174 H         1 UNK         0.0781 
    110 H110      -79.7993   31.4363  -74.7045 H         1 UNK         0.0836 
    111 H111      -78.5983   32.7011  -74.6384 H         1 UNK         0.0836 
    112 H112      -77.7666   26.2707  -75.0757 H         1 UNK         0.3022 
    113 H113      -75.2485   24.1977  -73.6755 H         1 UNK         0.0747 
    114 H114      -76.7963   23.5183  -71.9786 H         1 UNK         0.0793 
    115 H115      -76.3850   25.1840  -71.6117 H         1 UNK         0.0793 
    116 H116      -77.9304   24.8031  -72.3621 H         1 UNK         0.0793 
    117 H117      -77.8928   23.5682  -74.4221 H         1 UNK         0.3047 
    118 H118      -77.6040   23.6485  -77.9232 H         1 UNK         0.0822 
    119 H119      -78.0990   21.2259  -77.8653 H         1 UNK         0.0807 
    120 H120      -77.5661   21.1243  -76.1864 H         1 UNK         0.0807 
    121 H121      -76.4142   21.5000  -77.4603 H         1 UNK         0.0807 
    122 H122      -79.6570   22.5262  -76.3895 H         1 UNK         0.2946 
    123 H123      -81.7069   25.2736  -76.3418 H         1 UNK         0.1144 
    124 H124      -82.9138   23.2285  -75.6749 H         1 UNK         0.0793 
    125 H125      -81.4143   22.3584  -75.3976 H         1 UNK         0.0793 
    126 H126      -81.8654   22.8610  -77.0289 H         1 UNK         0.0793 
    127 H127      -80.7848   24.1210  -73.7334 H         1 UNK         0.2896 
@<TRIPOS>BOND
     1    1    2 1    
     2    1   67 1    
     3    1   68 1    
     4    1   69 1    
     5    2    3 2    
     6    2    4 am   BACKBONE|DICT|INTERRES
     7    4    5 1    
     8    4   70 1    
     9    5    6 1    
    10    5   65 1    
    11    5   71 1    
    12    6    7 1    
    13    6   72 1    
    14    6   73 1    
    15    7    8 1    
    16    8    9 1    
    17    8   74 1    
    18    8   75 1    
    19    9   10 ar   
    20    9   14 ar   
    21   10   11 ar   
    22   10   76 1    
    23   11   12 ar   
    24   11   48 1    
    25   12   13 ar   
    26   12   77 1    
    27   13   14 ar   
    28   13   15 1    
    29   14   78 1    
    30   15   16 1    
    31   15   79 1    
    32   15   80 1    
    33   16   17 1    
    34   17   18 1    
    35   17   81 1    
    36   17   82 1    
    37   18   19 1    
    38   18   22 1    
    39   18   83 1    
    40   19   20 am   BACKBONE|DICT|INTERRES
    41   19   21 2    
    42   20   84 1    
    43   20   85 1    
    44   22   23 am   BACKBONE|DICT|INTERRES
    45   22   86 1    
    46   23   24 2    
    47   23   25 1    
    48   25   26 1    
    49   25   27 1    
    50   25   87 1    
    51   26   88 1    
    52   26   89 1    
    53   26   90 1    
    54   27   28 am   BACKBONE|DICT|INTERRES
    55   27   91 1    
    56   28   29 2    
    57   28   30 1    
    58   30   31 1    
    59   30   32 1    
    60   30   92 1    
    61   31   93 1    
    62   31   94 1    
    63   31   95 1    
    64   32   33 am   BACKBONE|DICT|INTERRES
    65   32   96 1    
    66   33   34 2    
    67   33   35 1    
    68   35   36 1    
    69   35   37 1    
    70   35   97 1    
    71   36   98 1    
    72   36   99 1    
    73   36  100 1    
    74   37   38 am   BACKBONE|DICT|INTERRES
    75   37  101 1    
    76   38   39 2    
    77   38   40 1    
    78   40   41 1    
    79   40   42 1    
    80   40  102 1    
    81   41  103 1    
    82   41  104 1    
    83   41  105 1    
    84   42   43 am   BACKBONE|DICT|INTERRES
    85   42  106 1    
    86   43   44 2    
    87   43   45 1    
    88   45   46 1    
    89   45   49 1    
    90   45  107 1    
    91   46   47 1    
    92   46  108 1    
    93   46  109 1    
    94   47   48 1    
    95   48  110 1    
    96   48  111 1    
    97   49   50 am   BACKBONE|DICT|INTERRES
    98   49  112 1    
    99   50   51 2    
   100   50   52 1    
   101   52   53 1    
   102   52   54 1    
   103   52  113 1    
   104   53  114 1    
   105   53  115 1    
   106   53  116 1    
   107   54   55 am   BACKBONE|DICT|INTERRES
   108   54  117 1    
   109   55   56 2    
   110   55   57 1    
   111   57   58 1    
   112   57   59 1    
   113   57  118 1    
   114   58  119 1    
   115   58  120 1    
   116   58  121 1    
   117   59   60 am   BACKBONE|DICT|INTERRES
   118   59  122 1    
   119   60   61 2    
   120   60   62 1    
   121   62   63 1    
   122   62   64 1    
   123   62  123 1    
   124   63  124 1    
   125   63  125 1    
   126   63  126 1    
   127   64   65 am   BACKBONE|DICT|INTERRES
   128   64  127 1    
   129   65   66 2    
@<TRIPOS>SUBSTRUCTURE
     1 UNK         1 GROUP             0       ****    0 ROOT    
