@<TRIPOS>MOLECULE
3R135
127   129    1
SMALL
USER_CHARGES


@<TRIPOS>ATOM
      1 CA        -84.7033   30.3044  -71.9174 C.3       0 UNK        -0.1998 
      2 C         -83.9235   30.2923  -73.2238 C.2       0 UNK         0.4909 
      3 O         -83.9899   31.2584  -73.9850 O.2       0 UNK        -0.5240 
      4 N         -83.1915   29.2058  -73.4900 N.am      1 UNK        -0.4739 
      5 CA        -82.3843   29.0163  -74.6984 C.3       1 UNK         0.0864 
      6 C6        -81.0594   29.8281  -74.7145 C.3       11 UNK        -0.0881 
      7 S7        -80.0528   29.6717  -73.1974 S.3       11 UNK        -0.2682 
      8 C8        -78.6061   28.7775  -73.8303 C.3       11 UNK         0.0289 
      9 C9        -77.6609   28.4171  -72.6987 C.ar      11 UNK        -0.0687 
     10 C10       -77.7442   27.1618  -72.0944 C.ar      11 UNK        -0.0823 
     11 C11       -76.8910   26.8211  -71.0415 C.ar      11 UNK        -0.0830 
     12 C12       -75.9347   27.7449  -70.6081 C.ar      11 UNK        -0.1021 
     13 C13       -75.8473   29.0100  -71.1991 C.ar      11 UNK        -0.0753 
     14 C14       -76.7186   29.3415  -72.2417 C.ar      11 UNK        -0.0933 
     15 C15       -74.8438   30.0287  -70.6753 C.3       11 UNK         0.0166 
     16 S16       -73.3340   30.1021  -71.6914 S.3       11 UNK        -0.2615 
     17 C17       -73.8621   31.1729  -73.0739 C.3       11 UNK        -0.0865 
     18 CA        -73.9871   30.3992  -74.4197 C.3       10 UNK         0.0862 
     19 C         -74.7117   31.2098  -75.5349 C.2       10 UNK         0.5551 
     20 N         -74.7348   30.7121  -76.7641 N.am      10 UNK        -0.7319 
     21 O         -75.2639   32.2810  -75.2945 O.2       10 UNK        -0.5018 
     22 N         -72.7123   29.8125  -74.8698 N.am      10 UNK        -0.4509 
     23 C         -71.6036   30.4877  -75.2053 C.2       10 UNK         0.4899 
     24 O         -71.5201   31.7165  -75.1749 O.2       10 UNK        -0.4839 
     25 CA        -70.3776   29.6797  -75.6841 C.3       9 UNK         0.0222 
     26 CB        -69.0703   30.1757  -75.0301 C.3       9 UNK        -0.1966 
     27 N         -70.5041   28.2206  -75.5650 N.am      9 UNK        -0.4218 
     28 C         -70.5965   27.4695  -74.4579 C.2       9 UNK         0.5020 
     29 O         -70.5572   27.9240  -73.3142 O.2       9 UNK        -0.5274 
     30 CA        -70.7910   25.9541  -74.6814 C.3       8 UNK         0.0270 
     31 CB        -71.0846   25.1933  -73.3745 C.3       8 UNK        -0.1976 
     32 N         -71.8569   25.6732  -75.6517 N.am      8 UNK        -0.4313 
     33 C         -71.7253   25.7597  -76.9850 C.2       8 UNK         0.5041 
     34 O         -70.6694   26.0804  -77.5327 O.2       8 UNK        -0.5577 
     35 CA        -72.9628   25.5032  -77.8624 C.3       7 UNK         0.0284 
     36 CB        -72.8908   24.1080  -78.5026 C.3       7 UNK        -0.1958 
     37 N         -74.2286   25.6591  -77.1422 N.am      7 UNK        -0.4454 
     38 C         -74.7195   26.8404  -76.7363 C.2       7 UNK         0.5089 
     39 O         -74.1611   27.9158  -76.9547 O.2       7 UNK        -0.5125 
     40 CA        -76.0420   26.8348  -75.9430 C.3       6 UNK         0.0408 
     41 CB        -77.2090   27.1203  -76.9020 C.3       6 UNK        -0.1791 
     42 N         -76.3154   25.5959  -75.2038 N.am      6 UNK        -0.4762 
     43 C         -75.4950   25.0221  -74.3071 C.2       6 UNK         0.5007 
     44 O         -74.4039   25.4931  -73.9856 O.2       6 UNK        -0.5032 
     45 CA        -75.9087   23.6330  -73.7725 C.3       5 UNK         0.0783 
     46 C46       -76.8284   23.7139  -72.5332 C.3       11 UNK        -0.0857 
     47 S47       -75.9323   24.2080  -71.0235 S.3       11 UNK        -0.2512 
     48 C48       -77.0348   25.4804  -70.3350 C.3       11 UNK         0.0225 
     49 N         -76.5157   22.8076  -74.8200 N.am      5 UNK        -0.4615 
     50 C         -75.9068   22.3964  -75.9378 C.2       4 UNK         0.5053 
     51 O         -74.7250   22.6258  -76.1861 O.2       4 UNK        -0.5105 
     52 CA        -76.7623   21.6588  -76.9829 C.3       4 UNK         0.0263 
     53 CB        -76.9192   20.1664  -76.6309 C.3       4 UNK        -0.1981 
     54 N         -78.0566   22.3074  -77.2487 N.am      4 UNK        -0.4224 
     55 C         -79.1108   22.4338  -76.4305 C.2       3 UNK         0.4895 
     56 O         -79.1789   21.9330  -75.3048 O.2       3 UNK        -0.5091 
     57 CA        -80.2768   23.2792  -76.9669 C.3       3 UNK         0.0250 
     58 CB        -81.2118   22.4165  -77.8304 C.3       3 UNK        -0.1996 
     59 N         -81.0579   23.9019  -75.8963 N.am      3 UNK        -0.4254 
     60 C         -80.6021   24.8147  -75.0272 C.2       2 UNK         0.5004 
     61 O         -79.4492   25.2560  -75.0186 O.2       2 UNK        -0.5226 
     62 CA        -81.6159   25.3047  -73.9777 C.3       2 UNK         0.0269 
     63 CB        -81.2516   24.7835  -72.5778 C.3       2 UNK        -0.1926 
     64 N         -81.7417   26.7656  -73.9459 N.am      2 UNK        -0.4687 
     65 C         -82.1960   27.5137  -74.9643 C.2       1 UNK         0.5165 
     66 O         -82.5337   27.0501  -76.0546 O.2       1 UNK        -0.5079 
     67 H67       -85.7696   30.4055  -72.1175 H         1 UNK         0.0900 
     68 H68       -84.3901   31.1476  -71.3024 H         1 UNK         0.0900 
     69 H69       -84.5509   29.3912  -71.3424 H         1 UNK         0.0900 
     70 H70       -83.2060   28.4238  -72.8502 H         1 UNK         0.2959 
     71 H71       -82.9826   29.3781  -75.5386 H         1 UNK         0.1079 
     72 H72       -80.4625   29.5726  -75.5923 H         1 UNK         0.0837 
     73 H73       -81.2952   30.8870  -74.8301 H         1 UNK         0.0837 
     74 H74       -78.9414   27.8729  -74.3377 H         1 UNK         0.0685 
     75 H75       -78.0895   29.3860  -74.5744 H         1 UNK         0.0685 
     76 H76       -78.4876   26.4608  -72.4413 H         1 UNK         0.1434 
     77 H77       -75.2727   27.4860  -69.7930 H         1 UNK         0.1329 
     78 H78       -76.6769   30.3220  -72.6934 H         1 UNK         0.1335 
     79 H79       -74.5549   29.7717  -69.6550 H         1 UNK         0.0680 
     80 H80       -75.3046   31.0155  -70.6119 H         1 UNK         0.0680 
     81 H81       -73.1500   31.9937  -73.1657 H         1 UNK         0.1032 
     82 H82       -74.8070   31.6497  -72.8125 H         1 UNK         0.1032 
     83 H83       -74.6438   29.5490  -74.2345 H         1 UNK         0.0461 
     84 H84       -75.1956   31.2221  -77.5000 H         1 UNK         0.3453 
     85 H85       -74.3484   29.7892  -76.9446 H         1 UNK         0.3453 
     86 H86       -72.7039   28.8082  -74.9646 H         1 UNK         0.2984 
     87 H87       -70.2992   29.8752  -76.7544 H         1 UNK         0.0554 
     88 H88       -68.2068   29.6191  -75.3940 H         1 UNK         0.0847 
     89 H89       -69.0991   30.0803  -73.9443 H         1 UNK         0.0847 
     90 H90       -68.8927   31.2278  -75.2561 H         1 UNK         0.0847 
     91 H91       -70.5386   27.7116  -76.4453 H         1 UNK         0.3141 
     92 H92       -69.8493   25.5688  -75.0781 H         1 UNK         0.0743 
     93 H93       -71.9818   25.5693  -72.8812 H         1 UNK         0.0784 
     94 H94       -71.2228   24.1273  -73.5558 H         1 UNK         0.0784 
     95 H95       -70.2593   25.2972  -72.6689 H         1 UNK         0.0784 
     96 H96       -72.7732   25.4752  -75.2607 H         1 UNK         0.3213 
     97 H97       -72.9469   26.2412  -78.6677 H         1 UNK         0.0855 
     98 H98       -72.7939   23.3224  -77.7532 H         1 UNK         0.0814 
     99 H99       -72.0240   24.0304  -79.1603 H         1 UNK         0.0814 
    100 H100      -73.7741   23.8954  -79.1049 H         1 UNK         0.0814 
    101 H101      -74.7139   24.8097  -76.8830 H         1 UNK         0.3105 
    102 H102      -75.9885   27.6421  -75.2105 H         1 UNK         0.0547 
    103 H103      -77.0631   28.0684  -77.4218 H         1 UNK         0.0837 
    104 H104      -77.3044   26.3433  -77.6614 H         1 UNK         0.0837 
    105 H105      -78.1606   27.1861  -76.3781 H         1 UNK         0.0837 
    106 H106      -77.2188   25.1664  -75.3673 H         1 UNK         0.3020 
    107 H107      -74.9873   23.1246  -73.4780 H         1 UNK         0.1245 
    108 H108      -77.2570   22.7315  -72.3275 H         1 UNK         0.0781 
    109 H109      -77.6801   24.3668  -72.7231 H         1 UNK         0.0781 
    110 H110      -76.8030   25.6022  -69.2758 H         1 UNK         0.0836 
    111 H111      -78.0687   25.1335  -70.3743 H         1 UNK         0.0836 
    112 H112      -77.4990   22.5709  -74.7144 H         1 UNK         0.3022 
    113 H113      -76.2123   21.7108  -77.9242 H         1 UNK         0.0747 
    114 H114      -77.4880   19.6370  -77.3953 H         1 UNK         0.0793 
    115 H115      -75.9443   19.6823  -76.5589 H         1 UNK         0.0793 
    116 H116      -77.4223   20.0175  -75.6753 H         1 UNK         0.0793 
    117 H117      -78.1151   22.7640  -78.1490 H         1 UNK         0.3047 
    118 H118      -79.8675   24.0829  -77.5830 H         1 UNK         0.0822 
    119 H119      -82.0194   23.0111  -78.2582 H         1 UNK         0.0807 
    120 H120      -80.6725   21.9622  -78.6628 H         1 UNK         0.0807 
    121 H121      -81.6599   21.6064  -77.2532 H         1 UNK         0.0807 
    122 H122      -82.0112   23.5835  -75.8044 H         1 UNK         0.2946 
    123 H123      -82.5997   24.9049  -74.2339 H         1 UNK         0.1144 
    124 H124      -81.1748   23.6952  -72.5764 H         1 UNK         0.0793 
    125 H125      -82.0100   25.0541  -71.8430 H         1 UNK         0.0793 
    126 H126      -80.2961   25.1735  -72.2320 H         1 UNK         0.0793 
    127 H127      -81.4210   27.2326  -73.1099 H         1 UNK         0.2896 
@<TRIPOS>BOND
     1    1    2 1    
     2    1   67 1    
     3    1   68 1    
     4    1   69 1    
     5    2    3 2    
     6    2    4 am   BACKBONE|DICT|INTERRES
     7    4    5 1    
     8    4   70 1    
     9    5    6 1    
    10    5   65 1    
    11    5   71 1    
    12    6    7 1    
    13    6   72 1    
    14    6   73 1    
    15    7    8 1    
    16    8    9 1    
    17    8   74 1    
    18    8   75 1    
    19    9   10 ar   
    20    9   14 ar   
    21   10   11 ar   
    22   10   76 1    
    23   11   12 ar   
    24   11   48 1    
    25   12   13 ar   
    26   12   77 1    
    27   13   14 ar   
    28   13   15 1    
    29   14   78 1    
    30   15   16 1    
    31   15   79 1    
    32   15   80 1    
    33   16   17 1    
    34   17   18 1    
    35   17   81 1    
    36   17   82 1    
    37   18   19 1    
    38   18   22 1    
    39   18   83 1    
    40   19   20 am   BACKBONE|DICT|INTERRES
    41   19   21 2    
    42   20   84 1    
    43   20   85 1    
    44   22   23 am   BACKBONE|DICT|INTERRES
    45   22   86 1    
    46   23   24 2    
    47   23   25 1    
    48   25   26 1    
    49   25   27 1    
    50   25   87 1    
    51   26   88 1    
    52   26   89 1    
    53   26   90 1    
    54   27   28 am   BACKBONE|DICT|INTERRES
    55   27   91 1    
    56   28   29 2    
    57   28   30 1    
    58   30   31 1    
    59   30   32 1    
    60   30   92 1    
    61   31   93 1    
    62   31   94 1    
    63   31   95 1    
    64   32   33 am   BACKBONE|DICT|INTERRES
    65   32   96 1    
    66   33   34 2    
    67   33   35 1    
    68   35   36 1    
    69   35   37 1    
    70   35   97 1    
    71   36   98 1    
    72   36   99 1    
    73   36  100 1    
    74   37   38 am   BACKBONE|DICT|INTERRES
    75   37  101 1    
    76   38   39 2    
    77   38   40 1    
    78   40   41 1    
    79   40   42 1    
    80   40  102 1    
    81   41  103 1    
    82   41  104 1    
    83   41  105 1    
    84   42   43 am   BACKBONE|DICT|INTERRES
    85   42  106 1    
    86   43   44 2    
    87   43   45 1    
    88   45   46 1    
    89   45   49 1    
    90   45  107 1    
    91   46   47 1    
    92   46  108 1    
    93   46  109 1    
    94   47   48 1    
    95   48  110 1    
    96   48  111 1    
    97   49   50 am   BACKBONE|DICT|INTERRES
    98   49  112 1    
    99   50   51 2    
   100   50   52 1    
   101   52   53 1    
   102   52   54 1    
   103   52  113 1    
   104   53  114 1    
   105   53  115 1    
   106   53  116 1    
   107   54   55 am   BACKBONE|DICT|INTERRES
   108   54  117 1    
   109   55   56 2    
   110   55   57 1    
   111   57   58 1    
   112   57   59 1    
   113   57  118 1    
   114   58  119 1    
   115   58  120 1    
   116   58  121 1    
   117   59   60 am   BACKBONE|DICT|INTERRES
   118   59  122 1    
   119   60   61 2    
   120   60   62 1    
   121   62   63 1    
   122   62   64 1    
   123   62  123 1    
   124   63  124 1    
   125   63  125 1    
   126   63  126 1    
   127   64   65 am   BACKBONE|DICT|INTERRES
   128   64  127 1    
   129   65   66 2    
@<TRIPOS>SUBSTRUCTURE
     1 UNK         1 GROUP             0       ****    0 ROOT    
