@<TRIPOS>MOLECULE
3R135
127   129    1
SMALL
USER_CHARGES


@<TRIPOS>ATOM
      1 CA        -76.4523   26.8954  -70.9639 C.3       0 UNK        -0.1998 
      2 C         -77.7409   26.0937  -70.9507 C.2       0 UNK         0.4909 
      3 O         -77.7479   24.9460  -70.5050 O.2       0 UNK        -0.5240 
      4 N         -78.8313   26.7022  -71.4264 N.am      1 UNK        -0.4739 
      5 CA        -80.1527   26.0785  -71.5357 C.3       1 UNK         0.0864 
      6 C6        -81.3016   27.0840  -71.2433 C.3       11 UNK        -0.0881 
      7 S7        -81.0306   28.1113  -69.7534 S.3       11 UNK        -0.2682 
      8 C8        -81.2406   29.8043  -70.4003 C.3       11 UNK         0.0289 
      9 C9        -80.0984   30.2432  -71.3100 C.ar      11 UNK        -0.0687 
     10 C10       -80.2033   30.0853  -72.6946 C.ar      11 UNK        -0.0823 
     11 C11       -79.1724   30.5018  -73.5373 C.ar      11 UNK        -0.0830 
     12 C12       -78.0494   31.1299  -72.9923 C.ar      11 UNK        -0.1021 
     13 C13       -77.9236   31.2986  -71.6081 C.ar      11 UNK        -0.0753 
     14 C14       -78.9533   30.8442  -70.7741 C.ar      11 UNK        -0.0933 
     15 C15       -76.7162   32.0099  -70.9922 C.3       11 UNK         0.0166 
     16 S16       -75.1454   31.8086  -71.9085 S.3       11 UNK        -0.2615 
     17 C17       -74.8194   30.0356  -71.6493 C.3       11 UNK        -0.0865 
     18 CA        -73.3709   29.6172  -72.0134 C.3       10 UNK         0.0862 
     19 C         -73.1015   28.1544  -71.5488 C.2       10 UNK         0.5551 
     20 N         -72.9482   27.1814  -72.4392 N.am      10 UNK        -0.7319 
     21 O         -73.0363   27.9008  -70.3489 O.2       10 UNK        -0.5018 
     22 N         -73.0713   29.8755  -73.4310 N.am      10 UNK        -0.4509 
     23 C         -71.8455   29.8692  -73.9669 C.2       10 UNK         0.4899 
     24 O         -70.8027   29.7492  -73.3207 O.2       10 UNK        -0.4839 
     25 CA        -71.7796   29.9858  -75.5002 C.3       9 UNK         0.0222 
     26 CB        -70.8674   31.1474  -75.9299 C.3       9 UNK        -0.1966 
     27 N         -71.3184   28.7421  -76.1273 N.am      9 UNK        -0.4218 
     28 C         -71.9190   27.5507  -76.0018 C.2       9 UNK         0.5020 
     29 O         -72.9183   27.3556  -75.3100 O.2       9 UNK        -0.5274 
     30 CA        -71.2913   26.3699  -76.7446 C.3       8 UNK         0.0270 
     31 CB        -70.3790   25.5566  -75.8096 C.3       8 UNK        -0.1976 
     32 N         -72.3642   25.5216  -77.2603 N.am      8 UNK        -0.4313 
     33 C         -72.2765   24.7639  -78.3602 C.2       8 UNK         0.5041 
     34 O         -71.2448   24.6374  -79.0224 O.2       8 UNK        -0.5577 
     35 CA        -73.5524   24.0394  -78.8240 C.3       7 UNK         0.0284 
     36 CB        -73.7562   22.7297  -78.0451 C.3       7 UNK        -0.1958 
     37 N         -74.7536   24.8702  -78.7196 N.am      7 UNK        -0.4454 
     38 C         -74.9975   25.9643  -79.4568 C.2       7 UNK         0.5089 
     39 O         -74.2490   26.3770  -80.3431 O.2       7 UNK        -0.5125 
     40 CA        -76.2908   26.7368  -79.1484 C.3       6 UNK         0.0408 
     41 CB        -77.4772   26.1678  -79.9429 C.3       6 UNK        -0.1791 
     42 N         -76.5919   26.7158  -77.7164 N.am      6 UNK        -0.4762 
     43 C         -76.0313   27.5436  -76.8216 C.2       6 UNK         0.5007 
     44 O         -75.3110   28.4926  -77.1350 O.2       6 UNK        -0.5032 
     45 CA        -76.3107   27.2726  -75.3264 C.3       5 UNK         0.0783 
     46 C46       -77.2270   28.3419  -74.6922 C.3       11 UNK        -0.0857 
     47 S47       -78.8898   28.5056  -75.4303 S.3       11 UNK        -0.2512 
     48 C48       -79.2623   30.2463  -75.0352 C.3       11 UNK         0.0225 
     49 N         -76.7458   25.8986  -75.0434 N.am      5 UNK        -0.4615 
     50 C         -75.9202   24.8429  -75.1248 C.2       4 UNK         0.5053 
     51 O         -74.7388   24.9245  -75.4580 O.2       4 UNK        -0.5105 
     52 CA        -76.5088   23.4519  -74.8472 C.3       4 UNK         0.0263 
     53 CB        -76.6288   23.1961  -73.3389 C.3       4 UNK        -0.1981 
     54 N         -77.8048   23.2256  -75.4834 N.am      4 UNK        -0.4224 
     55 C         -78.0662   23.3115  -76.7923 C.2       3 UNK         0.4895 
     56 O         -77.2202   23.6170  -77.6326 O.2       3 UNK        -0.5091 
     57 CA        -79.5126   23.0406  -77.2489 C.3       3 UNK         0.0250 
     58 CB        -79.7425   21.5370  -77.4945 C.3       3 UNK        -0.1996 
     59 N         -80.5486   23.6158  -76.3745 N.am      3 UNK        -0.4254 
     60 C         -80.8494   23.3032  -75.1051 C.2       2 UNK         0.5004 
     61 O         -80.3154   22.3947  -74.4643 O.2       2 UNK        -0.5226 
     62 CA        -81.8997   24.1913  -74.4184 C.3       2 UNK         0.0269 
     63 CB        -83.2067   23.4113  -74.2015 C.3       2 UNK        -0.1926 
     64 N         -81.4437   24.7392  -73.1345 N.am      2 UNK        -0.4687 
     65 C         -80.3200   25.4467  -72.9357 C.2       1 UNK         0.5165 
     66 O         -79.4707   25.6437  -73.8112 O.2       1 UNK        -0.5079 
     67 H67       -75.7841   26.5637  -70.1693 H         1 UNK         0.0900 
     68 H68       -76.6590   27.9529  -70.8074 H         1 UNK         0.0900 
     69 H69       -75.9397   26.7688  -71.9172 H         1 UNK         0.0900 
     70 H70       -78.7700   27.6408  -71.7938 H         1 UNK         0.2959 
     71 H71       -80.2257   25.2699  -70.8050 H         1 UNK         0.1079 
     72 H72       -81.4781   27.7270  -72.1034 H         1 UNK         0.0837 
     73 H73       -82.2385   26.5446  -71.0945 H         1 UNK         0.0837 
     74 H74       -81.3147   30.4905  -69.5554 H         1 UNK         0.0685 
     75 H75       -82.1943   29.8746  -70.9260 H         1 UNK         0.0685 
     76 H76       -81.0842   29.6322  -73.1267 H         1 UNK         0.1434 
     77 H77       -77.2679   31.4785  -73.6526 H         1 UNK         0.1329 
     78 H78       -78.8756   30.9780  -69.7036 H         1 UNK         0.1335 
     79 H79       -76.5638   31.6746  -69.9650 H         1 UNK         0.0680 
     80 H80       -76.9438   33.0750  -70.9358 H         1 UNK         0.0680 
     81 H81       -75.0269   29.8097  -70.6012 H         1 UNK         0.1032 
     82 H82       -75.5384   29.4660  -72.2391 H         1 UNK         0.1032 
     83 H83       -72.6942   30.2428  -71.4278 H         1 UNK         0.0461 
     84 H84       -72.9835   27.3660  -73.4389 H         1 UNK         0.3453 
     85 H85       -72.7708   26.2455  -72.1141 H         1 UNK         0.3453 
     86 H86       -73.8671   29.9680  -74.0437 H         1 UNK         0.2984 
     87 H87       -72.7829   30.1897  -75.8809 H         1 UNK         0.0554 
     88 H88       -70.8817   31.2866  -77.0110 H         1 UNK         0.0847 
     89 H89       -69.8328   30.9848  -75.6249 H         1 UNK         0.0847 
     90 H90       -71.1947   32.0858  -75.4800 H         1 UNK         0.0847 
     91 H91       -70.4767   28.8039  -76.6817 H         1 UNK         0.3141 
     92 H92       -70.7032   26.7578  -77.5793 H         1 UNK         0.0743 
     93 H93       -70.9370   25.1422  -74.9686 H         1 UNK         0.0784 
     94 H94       -69.9051   24.7290  -76.3376 H         1 UNK         0.0784 
     95 H95       -69.5828   26.1793  -75.3996 H         1 UNK         0.0784 
     96 H96       -73.2376   25.5645  -76.7374 H         1 UNK         0.3213 
     97 H97       -73.4212   23.7852  -79.8781 H         1 UNK         0.0855 
     98 H98       -73.8782   22.9071  -76.9767 H         1 UNK         0.0814 
     99 H99       -72.8982   22.0677  -78.1681 H         1 UNK         0.0814 
    100 H100      -74.6362   22.1907  -78.3971 H         1 UNK         0.0814 
    101 H101      -75.4605   24.5700  -78.0565 H         1 UNK         0.3105 
    102 H102      -76.1478   27.7718  -79.4665 H         1 UNK         0.0547 
    103 H103      -77.2921   26.2385  -81.0155 H         1 UNK         0.0837 
    104 H104      -77.6587   25.1174  -79.7168 H         1 UNK         0.0837 
    105 H105      -78.3943   26.7194  -79.7362 H         1 UNK         0.0837 
    106 H106      -77.1546   25.9480  -77.3758 H         1 UNK         0.3020 
    107 H107      -75.3471   27.3874  -74.8286 H         1 UNK         0.1245 
    108 H108      -76.7254   29.3093  -74.7501 H         1 UNK         0.0781 
    109 H109      -77.3505   28.1376  -73.6286 H         1 UNK         0.0781 
    110 H110      -80.2643   30.4882  -75.3926 H         1 UNK         0.0836 
    111 H111      -78.5769   30.8960  -75.5818 H         1 UNK         0.0836 
    112 H112      -77.7129   25.7699  -74.7548 H         1 UNK         0.3022 
    113 H113      -75.8139   22.7180  -75.2602 H         1 UNK         0.0747 
    114 H114      -76.8765   22.1548  -73.1326 H         1 UNK         0.0793 
    115 H115      -75.6935   23.4173  -72.8227 H         1 UNK         0.0793 
    116 H116      -77.4061   23.8162  -72.8936 H         1 UNK         0.0793 
    117 H117      -78.5787   22.9620  -74.8782 H         1 UNK         0.3047 
    118 H118      -79.6282   23.5465  -78.2090 H         1 UNK         0.0822 
    119 H119      -80.7425   21.3473  -77.8845 H         1 UNK         0.0807 
    120 H120      -79.6199   20.9484  -76.5849 H         1 UNK         0.0807 
    121 H121      -79.0309   21.1511  -78.2258 H         1 UNK         0.0807 
    122 H122      -81.0383   24.4014  -76.7807 H         1 UNK         0.2946 
    123 H123      -82.1145   25.0431  -75.0676 H         1 UNK         0.1144 
    124 H124      -83.9890   24.0495  -73.7902 H         1 UNK         0.0793 
    125 H125      -83.0650   22.5705  -73.5210 H         1 UNK         0.0793 
    126 H126      -83.5821   23.0079  -75.1431 H         1 UNK         0.0793 
    127 H127      -82.0677   24.6005  -72.3531 H         1 UNK         0.2896 
@<TRIPOS>BOND
     1    1    2 1    
     2    1   67 1    
     3    1   68 1    
     4    1   69 1    
     5    2    3 2    
     6    2    4 am   BACKBONE|DICT|INTERRES
     7    4    5 1    
     8    4   70 1    
     9    5    6 1    
    10    5   65 1    
    11    5   71 1    
    12    6    7 1    
    13    6   72 1    
    14    6   73 1    
    15    7    8 1    
    16    8    9 1    
    17    8   74 1    
    18    8   75 1    
    19    9   10 ar   
    20    9   14 ar   
    21   10   11 ar   
    22   10   76 1    
    23   11   12 ar   
    24   11   48 1    
    25   12   13 ar   
    26   12   77 1    
    27   13   14 ar   
    28   13   15 1    
    29   14   78 1    
    30   15   16 1    
    31   15   79 1    
    32   15   80 1    
    33   16   17 1    
    34   17   18 1    
    35   17   81 1    
    36   17   82 1    
    37   18   19 1    
    38   18   22 1    
    39   18   83 1    
    40   19   20 am   BACKBONE|DICT|INTERRES
    41   19   21 2    
    42   20   84 1    
    43   20   85 1    
    44   22   23 am   BACKBONE|DICT|INTERRES
    45   22   86 1    
    46   23   24 2    
    47   23   25 1    
    48   25   26 1    
    49   25   27 1    
    50   25   87 1    
    51   26   88 1    
    52   26   89 1    
    53   26   90 1    
    54   27   28 am   BACKBONE|DICT|INTERRES
    55   27   91 1    
    56   28   29 2    
    57   28   30 1    
    58   30   31 1    
    59   30   32 1    
    60   30   92 1    
    61   31   93 1    
    62   31   94 1    
    63   31   95 1    
    64   32   33 am   BACKBONE|DICT|INTERRES
    65   32   96 1    
    66   33   34 2    
    67   33   35 1    
    68   35   36 1    
    69   35   37 1    
    70   35   97 1    
    71   36   98 1    
    72   36   99 1    
    73   36  100 1    
    74   37   38 am   BACKBONE|DICT|INTERRES
    75   37  101 1    
    76   38   39 2    
    77   38   40 1    
    78   40   41 1    
    79   40   42 1    
    80   40  102 1    
    81   41  103 1    
    82   41  104 1    
    83   41  105 1    
    84   42   43 am   BACKBONE|DICT|INTERRES
    85   42  106 1    
    86   43   44 2    
    87   43   45 1    
    88   45   46 1    
    89   45   49 1    
    90   45  107 1    
    91   46   47 1    
    92   46  108 1    
    93   46  109 1    
    94   47   48 1    
    95   48  110 1    
    96   48  111 1    
    97   49   50 am   BACKBONE|DICT|INTERRES
    98   49  112 1    
    99   50   51 2    
   100   50   52 1    
   101   52   53 1    
   102   52   54 1    
   103   52  113 1    
   104   53  114 1    
   105   53  115 1    
   106   53  116 1    
   107   54   55 am   BACKBONE|DICT|INTERRES
   108   54  117 1    
   109   55   56 2    
   110   55   57 1    
   111   57   58 1    
   112   57   59 1    
   113   57  118 1    
   114   58  119 1    
   115   58  120 1    
   116   58  121 1    
   117   59   60 am   BACKBONE|DICT|INTERRES
   118   59  122 1    
   119   60   61 2    
   120   60   62 1    
   121   62   63 1    
   122   62   64 1    
   123   62  123 1    
   124   63  124 1    
   125   63  125 1    
   126   63  126 1    
   127   64   65 am   BACKBONE|DICT|INTERRES
   128   64  127 1    
   129   65   66 2    
@<TRIPOS>SUBSTRUCTURE
     1 UNK         1 GROUP             0       ****    0 ROOT    
