@<TRIPOS>MOLECULE
3R135
127   129    1
SMALL
USER_CHARGES


@<TRIPOS>ATOM
      1 CA        -83.1951   27.7206  -70.2932 C.3       0 UNK        -0.1998 
      2 C         -83.6947   27.3423  -71.6795 C.2       0 UNK         0.4909 
      3 O         -84.7540   26.7271  -71.8034 O.2       0 UNK        -0.5240 
      4 N         -82.9390   27.7079  -72.7232 N.am      1 UNK        -0.4739 
      5 CA        -83.2354   27.4011  -74.1291 C.3       1 UNK         0.0864 
      6 C6        -82.3958   28.2811  -75.0939 C.3       11 UNK        -0.0881 
      7 S7        -80.5882   28.0860  -74.8878 S.3       11 UNK        -0.2682 
      8 C8        -80.1399   29.6199  -74.0119 C.3       11 UNK         0.0289 
      9 C9        -78.7882   29.4709  -73.3305 C.ar      11 UNK        -0.0687 
     10 C10       -78.6757   28.6620  -72.1969 C.ar      11 UNK        -0.0823 
     11 C11       -77.4342   28.4590  -71.5915 C.ar      11 UNK        -0.0830 
     12 C12       -76.3060   29.0989  -72.1064 C.ar      11 UNK        -0.1021 
     13 C13       -76.3993   29.9169  -73.2358 C.ar      11 UNK        -0.0753 
     14 C14       -77.6491   30.1042  -73.8406 C.ar      11 UNK        -0.0933 
     15 C15       -75.1444   30.5168  -73.8624 C.3       11 UNK         0.0166 
     16 S16       -74.2456   31.6521  -72.7566 S.3       11 UNK        -0.2615 
     17 C17       -72.9768   30.5641  -72.0104 C.3       11 UNK        -0.0865 
     18 CA        -71.6114   30.6396  -72.7443 C.3       10 UNK         0.0862 
     19 C         -70.4686   30.0081  -71.8919 C.2       10 UNK         0.5551 
     20 N         -69.7155   29.0297  -72.3826 N.am      10 UNK        -0.7319 
     21 O         -70.2532   30.4252  -70.7566 O.2       10 UNK        -0.5018 
     22 N         -71.7125   30.0936  -74.1062 N.am      10 UNK        -0.4509 
     23 C         -70.9271   30.4343  -75.1335 C.2       10 UNK         0.4899 
     24 O         -70.0705   31.3184  -75.0784 O.2       10 UNK        -0.4839 
     25 CA        -71.1388   29.6389  -76.4374 C.3       9 UNK         0.0222 
     26 CB        -69.9517   29.7670  -77.4156 C.3       9 UNK        -0.1966 
     27 N         -71.4747   28.2241  -76.2168 N.am      9 UNK        -0.4218 
     28 C         -70.7359   27.3028  -75.5730 C.2       9 UNK         0.5020 
     29 O         -69.6722   27.5636  -75.0089 O.2       9 UNK        -0.5274 
     30 CA        -71.2606   25.8523  -75.5134 C.3       8 UNK         0.0270 
     31 CB        -71.5343   25.4323  -74.0590 C.3       8 UNK        -0.1976 
     32 N         -72.4665   25.6302  -76.3155 N.am      8 UNK        -0.4313 
     33 C         -72.4852   25.5044  -77.6508 C.2       8 UNK         0.5041 
     34 O         -71.4675   25.4553  -78.3425 O.2       8 UNK        -0.5577 
     35 CA        -73.8617   25.4673  -78.3454 C.3       7 UNK         0.0284 
     36 CB        -74.2240   24.0308  -78.7546 C.3       7 UNK        -0.1958 
     37 N         -74.9567   26.0390  -77.5529 N.am      7 UNK        -0.4454 
     38 C         -75.0220   27.3074  -77.1240 C.2       7 UNK         0.5089 
     39 O         -74.1603   28.1548  -77.3588 O.2       7 UNK        -0.5125 
     40 CA        -76.2129   27.6742  -76.2274 C.3       6 UNK         0.0408 
     41 CB        -77.4354   28.0606  -77.0719 C.3       6 UNK        -0.1791 
     42 N         -76.5502   26.6130  -75.2701 N.am      6 UNK        -0.4762 
     43 C         -75.7588   26.2421  -74.2483 C.2       6 UNK         0.5007 
     44 O         -74.6866   26.7915  -73.9953 O.2       6 UNK        -0.5032 
     45 CA        -76.1878   25.0034  -73.4268 C.3       5 UNK         0.0783 
     46 C46       -77.1403   25.3381  -72.2517 C.3       11 UNK        -0.0857 
     47 S47       -76.2672   26.0577  -70.8186 S.3       11 UNK        -0.2512 
     48 C48       -77.3000   27.5060  -70.4135 C.3       11 UNK         0.0225 
     49 N         -76.7671   23.9708  -74.2869 N.am      5 UNK        -0.4615 
     50 C         -76.0739   23.2225  -75.1549 C.2       4 UNK         0.5053 
     51 O         -74.8500   23.2664  -75.2724 O.2       4 UNK        -0.5105 
     52 CA        -76.8977   22.2978  -76.0697 C.3       4 UNK         0.0263 
     53 CB        -77.0896   20.9213  -75.4147 C.3       4 UNK        -0.1981 
     54 N         -78.2082   22.8622  -76.4113 N.am      4 UNK        -0.4224 
     55 C         -78.3979   23.9843  -77.1163 C.2       3 UNK         0.4895 
     56 O         -77.4767   24.6292  -77.6150 O.2       3 UNK        -0.5091 
     57 CA        -79.8349   24.5209  -77.2347 C.3       3 UNK         0.0250 
     58 CB        -80.6095   23.8039  -78.3570 C.3       3 UNK        -0.1996 
     59 N         -80.5855   24.5332  -75.9681 N.am      3 UNK        -0.4254 
     60 C         -81.0388   23.4979  -75.2430 C.2       2 UNK         0.5004 
     61 O         -80.8391   22.3195  -75.5404 O.2       2 UNK        -0.5226 
     62 CA        -81.8031   23.8137  -73.9418 C.3       2 UNK         0.0269 
     63 CB        -80.9884   23.3569  -72.7192 C.3       2 UNK        -0.1926 
     64 N         -82.1451   25.2289  -73.7694 N.am      2 UNK        -0.4687 
     65 C         -83.0839   25.8980  -74.4557 C.2       1 UNK         0.5165 
     66 O         -83.7974   25.3832  -75.3172 O.2       1 UNK        -0.5079 
     67 H67       -83.0351   26.8240  -69.6950 H         1 UNK         0.0900 
     68 H68       -83.9325   28.3418  -69.7857 H         1 UNK         0.0900 
     69 H69       -82.2567   28.2736  -70.3333 H         1 UNK         0.0900 
     70 H70       -82.0832   28.2176  -72.5635 H         1 UNK         0.2959 
     71 H71       -84.2872   27.6437  -74.2985 H         1 UNK         0.1079 
     72 H72       -82.6629   29.3306  -74.9601 H         1 UNK         0.0837 
     73 H73       -82.6480   28.0523  -76.1313 H         1 UNK         0.0837 
     74 H74       -80.1315   30.4494  -74.7207 H         1 UNK         0.0685 
     75 H75       -80.8945   29.8595  -73.2617 H         1 UNK         0.0685 
     76 H76       -79.5512   28.1588  -71.8110 H         1 UNK         0.1434 
     77 H77       -75.3491   28.9126  -71.6458 H         1 UNK         0.1329 
     78 H78       -77.7306   30.7142  -74.7296 H         1 UNK         0.1335 
     79 H79       -74.4856   29.7087  -74.1806 H         1 UNK         0.0680 
     80 H80       -75.4019   31.0670  -74.7686 H         1 UNK         0.0680 
     81 H81       -73.3195   29.5306  -71.9761 H         1 UNK         0.1032 
     82 H82       -72.8721   30.8775  -70.9698 H         1 UNK         0.1032 
     83 H83       -71.3503   31.6963  -72.8294 H         1 UNK         0.0461 
     84 H84       -69.8440   28.6823  -73.3263 H         1 UNK         0.3453 
     85 H85       -68.9816   28.6460  -71.8092 H         1 UNK         0.3453 
     86 H86       -72.3673   29.3375  -74.2364 H         1 UNK         0.2984 
     87 H87       -72.0108   30.0821  -76.9205 H         1 UNK         0.0554 
     88 H88       -70.1364   29.2153  -78.3374 H         1 UNK         0.0847 
     89 H89       -69.0260   29.3905  -76.9791 H         1 UNK         0.0847 
     90 H90       -69.7810   30.8082  -77.6918 H         1 UNK         0.0847 
     91 H91       -72.3627   27.9355  -76.6193 H         1 UNK         0.3141 
     92 H92       -70.4691   25.2091  -75.9036 H         1 UNK         0.0743 
     93 H93       -72.2369   26.1044  -73.5670 H         1 UNK         0.0784 
     94 H94       -71.9388   24.4213  -74.0035 H         1 UNK         0.0784 
     95 H95       -70.6149   25.4456  -73.4720 H         1 UNK         0.0784 
     96 H96       -73.3497   25.6489  -75.8224 H         1 UNK         0.3213 
     97 H97       -73.7765   26.0672  -79.2538 H         1 UNK         0.0855 
     98 H98       -74.2987   23.3723  -77.8896 H         1 UNK         0.0814 
     99 H99       -73.4648   23.6115  -79.4162 H         1 UNK         0.0814 
    100 H100      -75.1742   23.9950  -79.2879 H         1 UNK         0.0814 
    101 H101      -75.7545   25.4344  -77.3720 H         1 UNK         0.3105 
    102 H102      -75.9219   28.5553  -75.6590 H         1 UNK         0.0547 
    103 H103      -77.8326   27.2181  -77.6361 H         1 UNK         0.0837 
    104 H104      -78.2327   28.4592  -76.4484 H         1 UNK         0.0837 
    105 H105      -77.1786   28.8388  -77.7918 H         1 UNK         0.0837 
    106 H106      -77.3962   26.0939  -75.4468 H         1 UNK         0.3020 
    107 H107      -75.2725   24.5813  -73.0036 H         1 UNK         0.1245 
    108 H108      -77.9614   25.9751  -72.5821 H         1 UNK         0.0781 
    109 H109      -77.6106   24.4241  -71.8854 H         1 UNK         0.0781 
    110 H110      -78.2782   27.1605  -70.0750 H         1 UNK         0.0836 
    111 H111      -76.8535   28.0370  -69.5717 H         1 UNK         0.0836 
    112 H112      -77.7679   23.8545  -74.2504 H         1 UNK         0.3022 
    113 H113      -76.3377   22.1637  -76.9974 H         1 UNK         0.0747 
    114 H114      -77.6042   20.2324  -76.0850 H         1 UNK         0.0793 
    115 H115      -76.1281   20.4707  -75.1641 H         1 UNK         0.0793 
    116 H116      -77.6699   20.9884  -74.4934 H         1 UNK         0.0793 
    117 H117      -79.0369   22.3977  -76.0455 H         1 UNK         0.3047 
    118 H118      -79.7486   25.5690  -77.5262 H         1 UNK         0.0822 
    119 H119      -81.6049   24.2296  -78.4844 H         1 UNK         0.0807 
    120 H120      -80.7238   22.7371  -78.1627 H         1 UNK         0.0807 
    121 H121      -80.0899   23.9035  -79.3109 H         1 UNK         0.0807 
    122 H122      -80.7821   25.4551  -75.6016 H         1 UNK         0.2946 
    123 H123      -82.7318   23.2392  -73.9736 H         1 UNK         0.1144 
    124 H124      -81.5510   23.4934  -71.7953 H         1 UNK         0.0793 
    125 H125      -80.0528   23.9090  -72.6267 H         1 UNK         0.0793 
    126 H126      -80.7374   22.2972  -72.7865 H         1 UNK         0.0793 
    127 H127      -81.6153   25.7441  -73.0816 H         1 UNK         0.2896 
@<TRIPOS>BOND
     1    1    2 1    
     2    1   67 1    
     3    1   68 1    
     4    1   69 1    
     5    2    3 2    
     6    2    4 am   BACKBONE|DICT|INTERRES
     7    4    5 1    
     8    4   70 1    
     9    5    6 1    
    10    5   65 1    
    11    5   71 1    
    12    6    7 1    
    13    6   72 1    
    14    6   73 1    
    15    7    8 1    
    16    8    9 1    
    17    8   74 1    
    18    8   75 1    
    19    9   10 ar   
    20    9   14 ar   
    21   10   11 ar   
    22   10   76 1    
    23   11   12 ar   
    24   11   48 1    
    25   12   13 ar   
    26   12   77 1    
    27   13   14 ar   
    28   13   15 1    
    29   14   78 1    
    30   15   16 1    
    31   15   79 1    
    32   15   80 1    
    33   16   17 1    
    34   17   18 1    
    35   17   81 1    
    36   17   82 1    
    37   18   19 1    
    38   18   22 1    
    39   18   83 1    
    40   19   20 am   BACKBONE|DICT|INTERRES
    41   19   21 2    
    42   20   84 1    
    43   20   85 1    
    44   22   23 am   BACKBONE|DICT|INTERRES
    45   22   86 1    
    46   23   24 2    
    47   23   25 1    
    48   25   26 1    
    49   25   27 1    
    50   25   87 1    
    51   26   88 1    
    52   26   89 1    
    53   26   90 1    
    54   27   28 am   BACKBONE|DICT|INTERRES
    55   27   91 1    
    56   28   29 2    
    57   28   30 1    
    58   30   31 1    
    59   30   32 1    
    60   30   92 1    
    61   31   93 1    
    62   31   94 1    
    63   31   95 1    
    64   32   33 am   BACKBONE|DICT|INTERRES
    65   32   96 1    
    66   33   34 2    
    67   33   35 1    
    68   35   36 1    
    69   35   37 1    
    70   35   97 1    
    71   36   98 1    
    72   36   99 1    
    73   36  100 1    
    74   37   38 am   BACKBONE|DICT|INTERRES
    75   37  101 1    
    76   38   39 2    
    77   38   40 1    
    78   40   41 1    
    79   40   42 1    
    80   40  102 1    
    81   41  103 1    
    82   41  104 1    
    83   41  105 1    
    84   42   43 am   BACKBONE|DICT|INTERRES
    85   42  106 1    
    86   43   44 2    
    87   43   45 1    
    88   45   46 1    
    89   45   49 1    
    90   45  107 1    
    91   46   47 1    
    92   46  108 1    
    93   46  109 1    
    94   47   48 1    
    95   48  110 1    
    96   48  111 1    
    97   49   50 am   BACKBONE|DICT|INTERRES
    98   49  112 1    
    99   50   51 2    
   100   50   52 1    
   101   52   53 1    
   102   52   54 1    
   103   52  113 1    
   104   53  114 1    
   105   53  115 1    
   106   53  116 1    
   107   54   55 am   BACKBONE|DICT|INTERRES
   108   54  117 1    
   109   55   56 2    
   110   55   57 1    
   111   57   58 1    
   112   57   59 1    
   113   57  118 1    
   114   58  119 1    
   115   58  120 1    
   116   58  121 1    
   117   59   60 am   BACKBONE|DICT|INTERRES
   118   59  122 1    
   119   60   61 2    
   120   60   62 1    
   121   62   63 1    
   122   62   64 1    
   123   62  123 1    
   124   63  124 1    
   125   63  125 1    
   126   63  126 1    
   127   64   65 am   BACKBONE|DICT|INTERRES
   128   64  127 1    
   129   65   66 2    
@<TRIPOS>SUBSTRUCTURE
     1 UNK         1 GROUP             0       ****    0 ROOT    
