@<TRIPOS>MOLECULE
3R135
127   129    1
SMALL
USER_CHARGES


@<TRIPOS>ATOM
      1 CA        -84.0231   28.3759  -72.5772 C.3       0 UNK        -0.1998 
      2 C         -83.2841   28.7254  -73.8600 C.2       0 UNK         0.4909 
      3 O         -83.8734   29.3169  -74.7649 O.2       0 UNK        -0.5240 
      4 N         -81.9984   28.3588  -73.9465 N.am      1 UNK        -0.4739 
      5 CA        -81.1318   28.6164  -75.1065 C.3       1 UNK         0.0864 
      6 C6        -79.6413   28.7059  -74.6981 C.3       11 UNK        -0.0881 
      7 S7        -79.2927   30.2387  -73.7764 S.3       11 UNK        -0.2682 
      8 C8        -79.2817   29.6616  -72.0486 C.3       11 UNK         0.0289 
      9 C9        -78.0717   28.8014  -71.7034 C.ar      11 UNK        -0.0687 
     10 C10       -78.2454   27.5733  -71.0572 C.ar      11 UNK        -0.0823 
     11 C11       -77.1391   26.8156  -70.6597 C.ar      11 UNK        -0.0830 
     12 C12       -75.8510   27.2926  -70.9175 C.ar      11 UNK        -0.1021 
     13 C13       -75.6621   28.5069  -71.5819 C.ar      11 UNK        -0.0753 
     14 C14       -76.7764   29.2555  -71.9726 C.ar      11 UNK        -0.0933 
     15 C15       -74.2551   28.9984  -71.8872 C.3       11 UNK         0.0166 
     16 S16       -73.9321   30.6391  -71.1616 S.3       11 UNK        -0.2615 
     17 C17       -72.1449   30.8384  -71.4735 C.3       11 UNK        -0.0865 
     18 CA        -71.8321   31.5936  -72.7923 C.3       10 UNK         0.0862 
     19 C         -70.3163   31.9469  -72.8669 C.2       10 UNK         0.5551 
     20 N         -69.5233   31.3241  -73.7320 N.am      10 UNK        -0.7319 
     21 O         -69.8537   32.8066  -72.1212 O.2       10 UNK        -0.5018 
     22 N         -72.3363   30.8541  -73.9574 N.am      10 UNK        -0.4509 
     23 C         -72.4573   31.3337  -75.2005 C.2       10 UNK         0.4899 
     24 O         -72.2977   32.5198  -75.4919 O.2       10 UNK        -0.4839 
     25 CA        -72.8082   30.3100  -76.3044 C.3       9 UNK         0.0222 
     26 CB        -72.1670   30.6763  -77.6590 C.3       9 UNK        -0.1966 
     27 N         -72.5052   28.9094  -75.9630 N.am      9 UNK        -0.4218 
     28 C         -71.3145   28.3948  -75.6039 C.2       9 UNK         0.5020 
     29 O         -70.2889   29.0659  -75.4800 O.2       9 UNK        -0.5274 
     30 CA        -71.2549   26.8908  -75.2785 C.3       8 UNK         0.0270 
     31 CB        -71.2720   26.6765  -73.7559 C.3       8 UNK        -0.1976 
     32 N         -72.3430   26.1242  -75.8891 N.am      8 UNK        -0.4313 
     33 C         -72.4309   25.8637  -77.2028 C.2       8 UNK         0.5041 
     34 O         -71.5508   26.1579  -78.0128 O.2       8 UNK        -0.5577 
     35 CA        -73.7122   25.1815  -77.7178 C.3       7 UNK         0.0284 
     36 CB        -73.4397   23.7035  -78.0398 C.3       7 UNK        -0.1958 
     37 N         -74.8581   25.2741  -76.8080 N.am      7 UNK        -0.4454 
     38 C         -75.4615   26.4141  -76.4331 C.2       7 UNK         0.5089 
     39 O         -75.0999   27.5324  -76.8003 O.2       7 UNK        -0.5125 
     40 CA        -76.6406   26.2889  -75.4502 C.3       6 UNK         0.0408 
     41 CB        -77.9389   26.1130  -76.2519 C.3       6 UNK        -0.1791 
     42 N         -76.5134   25.1760  -74.5031 N.am      6 UNK        -0.4762 
     43 C         -75.4572   24.9287  -73.7096 C.2       6 UNK         0.5007 
     44 O         -74.4784   25.6722  -73.6250 O.2       6 UNK        -0.5032 
     45 CA        -75.4363   23.5776  -72.9599 C.3       5 UNK         0.0783 
     46 C46       -75.7318   23.7298  -71.4479 C.3       11 UNK        -0.0857 
     47 S47       -77.4834   24.0892  -71.0604 S.3       11 UNK        -0.2512 
     48 C48       -77.3403   25.5010  -69.9204 C.3       11 UNK         0.0225 
     49 N         -76.2776   22.5417  -73.5704 N.am      5 UNK        -0.4615 
     50 C         -76.1742   22.0708  -74.8192 C.2       4 UNK         0.5053 
     51 O         -75.3377   22.4646  -75.6326 O.2       4 UNK        -0.5105 
     52 CA        -77.1990   21.0109  -75.2552 C.3       4 UNK         0.0263 
     53 CB        -77.9183   20.3056  -74.0813 C.3       4 UNK        -0.1981 
     54 N         -78.1738   21.5626  -76.2020 N.am      4 UNK        -0.4224 
     55 C         -79.0228   22.5818  -75.9986 C.2       3 UNK         0.4895 
     56 O         -79.0705   23.2537  -74.9641 O.2       3 UNK        -0.5091 
     57 CA        -79.9886   22.8874  -77.1524 C.3       3 UNK         0.0250 
     58 CB        -80.8349   21.6440  -77.5126 C.3       3 UNK        -0.1996 
     59 N         -80.8696   23.9989  -76.7880 N.am      3 UNK        -0.4254 
     60 C         -81.6375   24.6783  -77.6484 C.2       2 UNK         0.5004 
     61 O         -81.5948   24.5278  -78.8704 O.2       2 UNK        -0.5226 
     62 CA        -82.6618   25.6565  -77.0544 C.3       2 UNK         0.0269 
     63 CB        -83.8746   24.8932  -76.4950 C.3       2 UNK        -0.1926 
     64 N         -82.1277   26.5411  -76.0171 N.am      2 UNK        -0.4687 
     65 C         -81.3628   27.6152  -76.2627 C.2       1 UNK         0.5165 
     66 O         -80.8837   27.8617  -77.3702 O.2       1 UNK        -0.5079 
     67 H67       -84.8734   27.7311  -72.7977 H         1 UNK         0.0900 
     68 H68       -84.3969   29.2823  -72.1017 H         1 UNK         0.0900 
     69 H69       -83.3815   27.8595  -71.8634 H         1 UNK         0.0900 
     70 H70       -81.5679   27.8703  -73.1751 H         1 UNK         0.2959 
     71 H71       -81.4110   29.5875  -75.5231 H         1 UNK         0.1079 
     72 H72       -78.9995   28.7338  -75.5799 H         1 UNK         0.0837 
     73 H73       -79.3322   27.8343  -74.1189 H         1 UNK         0.0837 
     74 H74       -80.2126   29.1330  -71.8412 H         1 UNK         0.0685 
     75 H75       -79.2771   30.5349  -71.3953 H         1 UNK         0.0685 
     76 H76       -79.2422   27.2140  -70.8409 H         1 UNK         0.1434 
     77 H77       -74.9912   26.7174  -70.6051 H         1 UNK         0.1329 
     78 H78       -76.6334   30.2038  -72.4723 H         1 UNK         0.1335 
     79 H79       -73.5141   28.2902  -71.5133 H         1 UNK         0.0680 
     80 H80       -74.1330   29.0385  -72.9695 H         1 UNK         0.0680 
     81 H81       -71.7380   31.3867  -70.6212 H         1 UNK         0.1032 
     82 H82       -71.6534   29.8638  -71.4579 H         1 UNK         0.1032 
     83 H83       -72.3631   32.5471  -72.7637 H         1 UNK         0.0461 
     84 H84       -68.5467   31.5683  -73.7670 H         1 UNK         0.3453 
     85 H85       -69.8829   30.6008  -74.3480 H         1 UNK         0.3453 
     86 H86       -72.4759   29.8659  -73.8243 H         1 UNK         0.2984 
     87 H87       -73.8911   30.3597  -76.4266 H         1 UNK         0.0554 
     88 H88       -72.4417   29.9604  -78.4337 H         1 UNK         0.0847 
     89 H89       -71.0785   30.7009  -77.5960 H         1 UNK         0.0847 
     90 H90       -72.4957   31.6592  -77.9986 H         1 UNK         0.0847 
     91 H91       -73.2906   28.2727  -76.0566 H         1 UNK         0.3141 
     92 H92       -70.3075   26.5092  -75.6653 H         1 UNK         0.0743 
     93 H93       -70.4381   27.1936  -73.2790 H         1 UNK         0.0784 
     94 H94       -72.1898   27.0533  -73.3042 H         1 UNK         0.0784 
     95 H95       -71.1845   25.6199  -73.5024 H         1 UNK         0.0784 
     96 H96       -73.1081   25.8524  -75.2805 H         1 UNK         0.3213 
     97 H97       -73.9919   25.6868  -78.6447 H         1 UNK         0.0855 
     98 H98       -73.1436   23.1462  -77.1502 H         1 UNK         0.0814 
     99 H99       -72.6345   23.6041  -78.7691 H         1 UNK         0.0814 
    100 H100      -74.3199   23.2181  -78.4617 H         1 UNK         0.0814 
    101 H101      -75.1921   24.3984  -76.4173 H         1 UNK         0.3105 
    102 H102      -76.7018   27.2108  -74.8682 H         1 UNK         0.0547 
    103 H103      -78.1165   26.9684  -76.9047 H         1 UNK         0.0837 
    104 H104      -77.8999   25.2307  -76.8908 H         1 UNK         0.0837 
    105 H105      -78.8044   26.0087  -75.5990 H         1 UNK         0.0837 
    106 H106      -77.2700   24.5010  -74.4964 H         1 UNK         0.3020 
    107 H107      -74.4078   23.2206  -73.0500 H         1 UNK         0.1245 
    108 H108      -75.0784   24.4828  -71.0074 H         1 UNK         0.0781 
    109 H109      -75.4738   22.8002  -70.9382 H         1 UNK         0.0781 
    110 H110      -76.5276   25.3280  -69.2131 H         1 UNK         0.0836 
    111 H111      -78.2498   25.5549  -69.3200 H         1 UNK         0.0836 
    112 H112      -77.0369   22.2051  -72.9959 H         1 UNK         0.3022 
    113 H113      -76.6339   20.2505  -75.7966 H         1 UNK         0.0747 
    114 H114      -78.5438   19.4900  -74.4444 H         1 UNK         0.0793 
    115 H115      -77.2011   19.8693  -73.3845 H         1 UNK         0.0793 
    116 H116      -78.5618   20.9815  -73.5170 H         1 UNK         0.0793 
    117 H117      -78.1895   21.1110  -77.1059 H         1 UNK         0.3047 
    118 H118      -79.3887   23.1848  -78.0151 H         1 UNK         0.0822 
    119 H119      -80.2124   20.8056  -77.8259 H         1 UNK         0.0807 
    120 H120      -81.5183   21.8450  -78.3376 H         1 UNK         0.0807 
    121 H121      -81.4318   21.3083  -76.6635 H         1 UNK         0.0807 
    122 H122      -80.9017   24.2088  -75.7982 H         1 UNK         0.2946 
    123 H123      -83.0176   26.2823  -77.8769 H         1 UNK         0.1144 
    124 H124      -84.3058   24.2367  -77.2524 H         1 UNK         0.0793 
    125 H125      -84.6615   25.5778  -76.1775 H         1 UNK         0.0793 
    126 H126      -83.6052   24.2712  -75.6405 H         1 UNK         0.0793 
    127 H127      -82.4788   26.4142  -75.0792 H         1 UNK         0.2896 
@<TRIPOS>BOND
     1    1    2 1    
     2    1   67 1    
     3    1   68 1    
     4    1   69 1    
     5    2    3 2    
     6    2    4 am   BACKBONE|DICT|INTERRES
     7    4    5 1    
     8    4   70 1    
     9    5    6 1    
    10    5   65 1    
    11    5   71 1    
    12    6    7 1    
    13    6   72 1    
    14    6   73 1    
    15    7    8 1    
    16    8    9 1    
    17    8   74 1    
    18    8   75 1    
    19    9   10 ar   
    20    9   14 ar   
    21   10   11 ar   
    22   10   76 1    
    23   11   12 ar   
    24   11   48 1    
    25   12   13 ar   
    26   12   77 1    
    27   13   14 ar   
    28   13   15 1    
    29   14   78 1    
    30   15   16 1    
    31   15   79 1    
    32   15   80 1    
    33   16   17 1    
    34   17   18 1    
    35   17   81 1    
    36   17   82 1    
    37   18   19 1    
    38   18   22 1    
    39   18   83 1    
    40   19   20 am   BACKBONE|DICT|INTERRES
    41   19   21 2    
    42   20   84 1    
    43   20   85 1    
    44   22   23 am   BACKBONE|DICT|INTERRES
    45   22   86 1    
    46   23   24 2    
    47   23   25 1    
    48   25   26 1    
    49   25   27 1    
    50   25   87 1    
    51   26   88 1    
    52   26   89 1    
    53   26   90 1    
    54   27   28 am   BACKBONE|DICT|INTERRES
    55   27   91 1    
    56   28   29 2    
    57   28   30 1    
    58   30   31 1    
    59   30   32 1    
    60   30   92 1    
    61   31   93 1    
    62   31   94 1    
    63   31   95 1    
    64   32   33 am   BACKBONE|DICT|INTERRES
    65   32   96 1    
    66   33   34 2    
    67   33   35 1    
    68   35   36 1    
    69   35   37 1    
    70   35   97 1    
    71   36   98 1    
    72   36   99 1    
    73   36  100 1    
    74   37   38 am   BACKBONE|DICT|INTERRES
    75   37  101 1    
    76   38   39 2    
    77   38   40 1    
    78   40   41 1    
    79   40   42 1    
    80   40  102 1    
    81   41  103 1    
    82   41  104 1    
    83   41  105 1    
    84   42   43 am   BACKBONE|DICT|INTERRES
    85   42  106 1    
    86   43   44 2    
    87   43   45 1    
    88   45   46 1    
    89   45   49 1    
    90   45  107 1    
    91   46   47 1    
    92   46  108 1    
    93   46  109 1    
    94   47   48 1    
    95   48  110 1    
    96   48  111 1    
    97   49   50 am   BACKBONE|DICT|INTERRES
    98   49  112 1    
    99   50   51 2    
   100   50   52 1    
   101   52   53 1    
   102   52   54 1    
   103   52  113 1    
   104   53  114 1    
   105   53  115 1    
   106   53  116 1    
   107   54   55 am   BACKBONE|DICT|INTERRES
   108   54  117 1    
   109   55   56 2    
   110   55   57 1    
   111   57   58 1    
   112   57   59 1    
   113   57  118 1    
   114   58  119 1    
   115   58  120 1    
   116   58  121 1    
   117   59   60 am   BACKBONE|DICT|INTERRES
   118   59  122 1    
   119   60   61 2    
   120   60   62 1    
   121   62   63 1    
   122   62   64 1    
   123   62  123 1    
   124   63  124 1    
   125   63  125 1    
   126   63  126 1    
   127   64   65 am   BACKBONE|DICT|INTERRES
   128   64  127 1    
   129   65   66 2    
@<TRIPOS>SUBSTRUCTURE
     1 UNK         1 GROUP             0       ****    0 ROOT    
