@<TRIPOS>MOLECULE
3R135
127   129    1
SMALL
USER_CHARGES


@<TRIPOS>ATOM
      1 CA        -85.0635   27.9668  -72.7771 C.3       0 UNK        -0.1998 
      2 C         -83.6926   28.0158  -73.4344 C.2       0 UNK         0.4909 
      3 O         -83.4681   28.8380  -74.3228 O.2       0 UNK        -0.5240 
      4 N         -82.7741   27.1387  -73.0070 N.am      1 UNK        -0.4739 
      5 CA        -81.3958   27.0518  -73.5138 C.3       1 UNK         0.0864 
      6 C6        -80.4600   26.3202  -72.5165 C.3       11 UNK        -0.0881 
      7 S7        -80.4379   27.1043  -70.8645 S.3       11 UNK        -0.2682 
      8 C8        -78.6530   27.1587  -70.4715 C.3       11 UNK         0.0289 
      9 C9        -77.8983   28.3869  -70.9855 C.ar      11 UNK        -0.0687 
     10 C10       -78.3020   29.0987  -72.1225 C.ar      11 UNK        -0.0823 
     11 C11       -77.5541   30.1794  -72.5965 C.ar      11 UNK        -0.0830 
     12 C12       -76.4032   30.5702  -71.9100 C.ar      11 UNK        -0.1021 
     13 C13       -75.9894   29.8809  -70.7688 C.ar      11 UNK        -0.0753 
     14 C14       -76.7393   28.7922  -70.3131 C.ar      11 UNK        -0.0933 
     15 C15       -74.7252   30.3156  -70.0400 C.3       11 UNK         0.0166 
     16 S16       -73.3856   29.0824  -70.1281 S.3       11 UNK        -0.2615 
     17 C17       -73.2961   28.6778  -71.9083 C.3       11 UNK        -0.0865 
     18 CA        -72.8229   29.8064  -72.8654 C.3       10 UNK         0.0862 
     19 C         -71.3532   30.2467  -72.5770 C.2       10 UNK         0.5551 
     20 N         -70.3653   29.8435  -73.3684 N.am      10 UNK        -0.7319 
     21 O         -71.1059   30.9910  -71.6318 O.2       10 UNK        -0.5018 
     22 N         -73.0771   29.3938  -74.2542 N.am      10 UNK        -0.4509 
     23 C         -72.9241   30.1468  -75.3519 C.2       10 UNK         0.4899 
     24 O         -72.7217   31.3614  -75.3226 O.2       10 UNK        -0.4839 
     25 CA        -72.9775   29.4031  -76.7093 C.3       9 UNK         0.0222 
     26 CB        -72.1860   30.1367  -77.8137 C.3       9 UNK        -0.1966 
     27 N         -72.5640   27.9907  -76.6185 N.am      9 UNK        -0.4218 
     28 C         -71.3654   27.5539  -76.1929 C.2       9 UNK         0.5020 
     29 O         -70.4518   28.3128  -75.8639 O.2       9 UNK        -0.5274 
     30 CA        -71.1279   26.0421  -76.0689 C.3       8 UNK         0.0270 
     31 CB        -70.3839   25.6929  -74.7627 C.3       8 UNK        -0.1976 
     32 N         -72.3541   25.2456  -76.1428 N.am      8 UNK        -0.4313 
     33 C         -72.3999   24.0034  -76.6452 C.2       8 UNK         0.5041 
     34 O         -71.4598   23.4856  -77.2526 O.2       8 UNK        -0.5577 
     35 CA        -73.6896   23.1847  -76.4290 C.3       7 UNK         0.0284 
     36 CB        -73.4138   21.6721  -76.2953 C.3       7 UNK        -0.1958 
     37 N         -74.5258   23.6501  -75.3177 N.am      7 UNK        -0.4454 
     38 C         -74.1990   23.7588  -74.0205 C.2       7 UNK         0.5089 
     39 O         -73.1091   23.4246  -73.5541 O.2       7 UNK        -0.5125 
     40 CA        -75.2747   24.3701  -73.0984 C.3       6 UNK         0.0408 
     41 CB        -74.6833   24.9454  -71.7939 C.3       6 UNK        -0.1791 
     42 N         -76.1112   25.3740  -73.7708 N.am      6 UNK        -0.4762 
     43 C         -75.7037   26.5247  -74.3304 C.2       6 UNK         0.5007 
     44 O         -74.5256   26.8889  -74.3868 O.2       6 UNK        -0.5032 
     45 CA        -76.8180   27.3515  -75.0042 C.3       5 UNK         0.0783 
     46 C46       -76.4781   28.8508  -75.1913 C.3       11 UNK        -0.0857 
     47 S47       -78.0110   29.8329  -75.3414 S.3       11 UNK        -0.2512 
     48 C48       -77.9635   30.9124  -73.8685 C.3       11 UNK         0.0225 
     49 N         -77.2440   26.7201  -76.2575 N.am      5 UNK        -0.4615 
     50 C         -76.4662   26.3964  -77.3051 C.2       4 UNK         0.5053 
     51 O         -75.2539   26.6214  -77.3654 O.2       4 UNK        -0.5105 
     52 CA        -77.1731   25.6780  -78.4744 C.3       4 UNK         0.0263 
     53 CB        -76.1901   24.9786  -79.4362 C.3       4 UNK        -0.1981 
     54 N         -78.2216   24.7408  -78.0433 N.am      4 UNK        -0.4224 
     55 C         -78.0991   23.7226  -77.1744 C.2       3 UNK         0.4895 
     56 O         -77.0500   23.4310  -76.6008 O.2       3 UNK        -0.5091 
     57 CA        -79.3900   22.9596  -76.8432 C.3       3 UNK         0.0250 
     58 CB        -79.2458   22.0167  -75.6324 C.3       3 UNK        -0.1996 
     59 N         -80.4415   23.9377  -76.5874 N.am      3 UNK        -0.4254 
     60 C         -81.7285   23.8450  -76.9221 C.2       2 UNK         0.5004 
     61 O         -82.2301   22.8402  -77.4294 O.2       2 UNK        -0.5226 
     62 CA        -82.5864   25.1029  -76.6597 C.3       2 UNK         0.0269 
     63 CB        -84.0925   24.8383  -76.8471 C.3       2 UNK        -0.1926 
     64 N         -82.3812   25.7166  -75.3405 N.am      2 UNK        -0.4687 
     65 C         -81.3092   26.4039  -74.9136 C.2       1 UNK         0.5165 
     66 O         -80.2698   26.5212  -75.5693 O.2       1 UNK        -0.5079 
     67 H67       -85.1198   27.1969  -72.0077 H         1 UNK         0.0900 
     68 H68       -85.8301   27.7582  -73.5230 H         1 UNK         0.0900 
     69 H69       -85.2912   28.9262  -72.3133 H         1 UNK         0.0900 
     70 H70       -83.0031   26.5040  -72.2546 H         1 UNK         0.2959 
     71 H71       -81.0321   28.0726  -73.6422 H         1 UNK         0.1079 
     72 H72       -80.7689   25.2803  -72.3929 H         1 UNK         0.0837 
     73 H73       -79.4416   26.2866  -72.9065 H         1 UNK         0.0837 
     74 H74       -78.1665   26.2570  -70.8460 H         1 UNK         0.0685 
     75 H75       -78.5651   27.1197  -69.3846 H         1 UNK         0.0685 
     76 H76       -79.1852   28.8081  -72.6658 H         1 UNK         0.1434 
     77 H77       -75.8197   31.4053  -72.2729 H         1 UNK         0.1329 
     78 H78       -76.4072   28.2514  -69.4372 H         1 UNK         0.1335 
     79 H79       -74.9635   30.5001  -68.9917 H         1 UNK         0.0680 
     80 H80       -74.3543   31.2620  -70.4366 H         1 UNK         0.0680 
     81 H81       -74.2864   28.3326  -72.2058 H         1 UNK         0.1032 
     82 H82       -72.6456   27.8084  -72.0191 H         1 UNK         0.1032 
     83 H83       -73.4476   30.6831  -72.6908 H         1 UNK         0.0461 
     84 H84       -69.4262   30.1485  -73.1700 H         1 UNK         0.3453 
     85 H85       -70.5425   29.2746  -74.1909 H         1 UNK         0.3453 
     86 H86       -73.3173   28.4157  -74.3836 H         1 UNK         0.2984 
     87 H87       -74.0162   29.3961  -77.0296 H         1 UNK         0.0554 
     88 H88       -72.2292   29.5961  -78.7591 H         1 UNK         0.0847 
     89 H89       -71.1365   30.2639  -77.5469 H         1 UNK         0.0847 
     90 H90       -72.5958   31.1314  -77.9929 H         1 UNK         0.0847 
     91 H91       -73.2826   27.3150  -76.8610 H         1 UNK         0.3141 
     92 H92       -70.4798   25.7872  -76.9099 H         1 UNK         0.0743 
     93 H93       -70.9751   25.9580  -73.8851 H         1 UNK         0.0784 
     94 H94       -70.1620   24.6271  -74.7039 H         1 UNK         0.0784 
     95 H95       -69.4319   26.2204  -74.6904 H         1 UNK         0.0784 
     96 H96       -73.1658   25.6051  -75.6514 H         1 UNK         0.3213 
     97 H97       -74.2850   23.3289  -77.3295 H         1 UNK         0.0855 
     98 H98       -72.7680   21.4535  -75.4444 H         1 UNK         0.0814 
     99 H99       -72.9215   21.2811  -77.1865 H         1 UNK         0.0814 
    100 H100      -74.3399   21.1114  -76.1683 H         1 UNK         0.0814 
    101 H101      -75.4762   23.8901  -75.5899 H         1 UNK         0.3105 
    102 H102      -75.9414   23.5507  -72.8261 H         1 UNK         0.0547 
    103 H103      -74.2047   24.1630  -71.2039 H         1 UNK         0.0837 
    104 H104      -73.9277   25.7043  -71.9949 H         1 UNK         0.0837 
    105 H105      -75.4541   25.3965  -71.1692 H         1 UNK         0.0837 
    106 H106      -77.0886   25.1302  -73.8463 H         1 UNK         0.3020 
    107 H107      -77.6691   27.2951  -74.3247 H         1 UNK         0.1245 
    108 H108      -75.8961   29.0025  -76.0953 H         1 UNK         0.0781 
    109 H109      -75.8685   29.2324  -74.3729 H         1 UNK         0.0781 
    110 H110      -78.9485   31.3582  -73.7240 H         1 UNK         0.0836 
    111 H111      -77.2820   31.7398  -74.0727 H         1 UNK         0.0836 
    112 H112      -78.2350   26.5189  -76.3148 H         1 UNK         0.3022 
    113 H113      -77.6767   26.4644  -79.0385 H         1 UNK         0.0747 
    114 H114      -76.7113   24.5652  -80.2995 H         1 UNK         0.0793 
    115 H115      -75.4431   25.6767  -79.8165 H         1 UNK         0.0793 
    116 H116      -75.6584   24.1632  -78.9489 H         1 UNK         0.0793 
    117 H117      -79.1367   24.9044  -78.4400 H         1 UNK         0.3047 
    118 H118      -79.6436   22.3654  -77.7237 H         1 UNK         0.0822 
    119 H119      -78.4728   21.2677  -75.8094 H         1 UNK         0.0807 
    120 H120      -80.1750   21.4822  -75.4346 H         1 UNK         0.0807 
    121 H121      -78.9738   22.5622  -74.7280 H         1 UNK         0.0807 
    122 H122      -80.1428   24.8223  -76.1821 H         1 UNK         0.2946 
    123 H123      -82.2865   25.8352  -77.4129 H         1 UNK         0.1144 
    124 H124      -84.3047   24.4588  -77.8477 H         1 UNK         0.0793 
    125 H125      -84.6751   25.7514  -76.7228 H         1 UNK         0.0793 
    126 H126      -84.4635   24.1021  -76.1329 H         1 UNK         0.0793 
    127 H127      -83.1614   25.6552  -74.7025 H         1 UNK         0.2896 
@<TRIPOS>BOND
     1    1    2 1    
     2    1   67 1    
     3    1   68 1    
     4    1   69 1    
     5    2    3 2    
     6    2    4 am   BACKBONE|DICT|INTERRES
     7    4    5 1    
     8    4   70 1    
     9    5    6 1    
    10    5   65 1    
    11    5   71 1    
    12    6    7 1    
    13    6   72 1    
    14    6   73 1    
    15    7    8 1    
    16    8    9 1    
    17    8   74 1    
    18    8   75 1    
    19    9   10 ar   
    20    9   14 ar   
    21   10   11 ar   
    22   10   76 1    
    23   11   12 ar   
    24   11   48 1    
    25   12   13 ar   
    26   12   77 1    
    27   13   14 ar   
    28   13   15 1    
    29   14   78 1    
    30   15   16 1    
    31   15   79 1    
    32   15   80 1    
    33   16   17 1    
    34   17   18 1    
    35   17   81 1    
    36   17   82 1    
    37   18   19 1    
    38   18   22 1    
    39   18   83 1    
    40   19   20 am   BACKBONE|DICT|INTERRES
    41   19   21 2    
    42   20   84 1    
    43   20   85 1    
    44   22   23 am   BACKBONE|DICT|INTERRES
    45   22   86 1    
    46   23   24 2    
    47   23   25 1    
    48   25   26 1    
    49   25   27 1    
    50   25   87 1    
    51   26   88 1    
    52   26   89 1    
    53   26   90 1    
    54   27   28 am   BACKBONE|DICT|INTERRES
    55   27   91 1    
    56   28   29 2    
    57   28   30 1    
    58   30   31 1    
    59   30   32 1    
    60   30   92 1    
    61   31   93 1    
    62   31   94 1    
    63   31   95 1    
    64   32   33 am   BACKBONE|DICT|INTERRES
    65   32   96 1    
    66   33   34 2    
    67   33   35 1    
    68   35   36 1    
    69   35   37 1    
    70   35   97 1    
    71   36   98 1    
    72   36   99 1    
    73   36  100 1    
    74   37   38 am   BACKBONE|DICT|INTERRES
    75   37  101 1    
    76   38   39 2    
    77   38   40 1    
    78   40   41 1    
    79   40   42 1    
    80   40  102 1    
    81   41  103 1    
    82   41  104 1    
    83   41  105 1    
    84   42   43 am   BACKBONE|DICT|INTERRES
    85   42  106 1    
    86   43   44 2    
    87   43   45 1    
    88   45   46 1    
    89   45   49 1    
    90   45  107 1    
    91   46   47 1    
    92   46  108 1    
    93   46  109 1    
    94   47   48 1    
    95   48  110 1    
    96   48  111 1    
    97   49   50 am   BACKBONE|DICT|INTERRES
    98   49  112 1    
    99   50   51 2    
   100   50   52 1    
   101   52   53 1    
   102   52   54 1    
   103   52  113 1    
   104   53  114 1    
   105   53  115 1    
   106   53  116 1    
   107   54   55 am   BACKBONE|DICT|INTERRES
   108   54  117 1    
   109   55   56 2    
   110   55   57 1    
   111   57   58 1    
   112   57   59 1    
   113   57  118 1    
   114   58  119 1    
   115   58  120 1    
   116   58  121 1    
   117   59   60 am   BACKBONE|DICT|INTERRES
   118   59  122 1    
   119   60   61 2    
   120   60   62 1    
   121   62   63 1    
   122   62   64 1    
   123   62  123 1    
   124   63  124 1    
   125   63  125 1    
   126   63  126 1    
   127   64   65 am   BACKBONE|DICT|INTERRES
   128   64  127 1    
   129   65   66 2    
@<TRIPOS>SUBSTRUCTURE
     1 UNK         1 GROUP             0       ****    0 ROOT    
