@<TRIPOS>MOLECULE
3R135
127   129    1
SMALL
USER_CHARGES


@<TRIPOS>ATOM
      1 CA        -76.8020   25.2175  -71.6877 C.3       0 UNK        -0.1998 
      2 C         -78.1767   25.0874  -71.0570 C.2       0 UNK         0.4909 
      3 O         -78.3507   24.3116  -70.1166 O.2       0 UNK        -0.5240 
      4 N         -79.1699   25.8105  -71.5869 N.am      1 UNK        -0.4739 
      5 CA        -80.5773   25.7676  -71.1740 C.3       1 UNK         0.0864 
      6 C6        -81.2984   27.1160  -71.4437 C.3       11 UNK        -0.0881 
      7 S7        -81.0877   27.7895  -73.1336 S.3       11 UNK        -0.2682 
      8 C8        -81.0986   29.5825  -72.8124 C.3       11 UNK         0.0289 
      9 C9        -79.6961   30.1758  -72.8140 C.ar      11 UNK        -0.0687 
     10 C10       -79.2417   30.8852  -73.9308 C.ar      11 UNK        -0.0823 
     11 C11       -77.9721   31.4707  -73.9335 C.ar      11 UNK        -0.0830 
     12 C12       -77.1511   31.3357  -72.8120 C.ar      11 UNK        -0.1021 
     13 C13       -77.5884   30.6223  -71.6930 C.ar      11 UNK        -0.0753 
     14 C14       -78.8645   30.0489  -71.6957 C.ar      11 UNK        -0.0933 
     15 C15       -76.6801   30.4891  -70.4794 C.3       11 UNK         0.0166 
     16 S16       -76.0045   28.8094  -70.2861 S.3       11 UNK        -0.2615 
     17 C17       -75.1207   28.5408  -71.8633 C.3       11 UNK        -0.0865 
     18 CA        -73.7015   29.1595  -71.9771 C.3       10 UNK         0.0862 
     19 C         -72.7223   28.5833  -70.9058 C.2       10 UNK         0.5551 
     20 N         -71.9064   27.5828  -71.2218 N.am      10 UNK        -0.7319 
     21 O         -72.6855   29.0678  -69.7777 O.2       10 UNK        -0.5018 
     22 N         -73.2363   29.0034  -73.3623 N.am      10 UNK        -0.4509 
     23 C         -72.0843   29.4453  -73.8827 C.2       10 UNK         0.4899 
     24 O         -71.3375   30.2450  -73.3171 O.2       10 UNK        -0.4839 
     25 CA        -71.6993   28.8644  -75.2635 C.3       9 UNK         0.0222 
     26 CB        -70.1716   28.7616  -75.4549 C.3       9 UNK        -0.1966 
     27 N         -72.3526   27.5751  -75.5594 N.am      9 UNK        -0.4218 
     28 C         -72.2543   26.4386  -74.8482 C.2       9 UNK         0.5020 
     29 O         -71.5187   26.3074  -73.8688 O.2       9 UNK        -0.5274 
     30 CA        -73.1945   25.2797  -75.2132 C.3       8 UNK         0.0270 
     31 CB        -74.4444   25.3199  -74.3188 C.3       8 UNK        -0.1976 
     32 N         -73.6195   25.2601  -76.6121 N.am      8 UNK        -0.4313 
     33 C         -72.8717   24.7993  -77.6229 C.2       8 UNK         0.5041 
     34 O         -71.7004   24.4377  -77.5032 O.2       8 UNK        -0.5577 
     35 CA        -73.5559   24.7031  -78.9938 C.3       7 UNK         0.0284 
     36 CB        -74.5388   23.5195  -79.0319 C.3       7 UNK        -0.1958 
     37 N         -74.2670   25.9387  -79.3158 N.am      7 UNK        -0.4454 
     38 C         -73.7235   26.9743  -79.9688 C.2       7 UNK         0.5089 
     39 O         -72.5794   26.9748  -80.4241 O.2       7 UNK        -0.5125 
     40 CA        -74.6011   28.2270  -80.1546 C.3       6 UNK         0.0408 
     41 CB        -75.2595   28.2159  -81.5434 C.3       6 UNK        -0.1791 
     42 N         -75.6392   28.3899  -79.1320 N.am      6 UNK        -0.4762 
     43 C         -75.4020   28.6092  -77.8302 C.2       6 UNK         0.5007 
     44 O         -74.2748   28.6642  -77.3411 O.2       6 UNK        -0.5032 
     45 CA        -76.6369   28.7175  -76.9118 C.3       5 UNK         0.0783 
     46 C46       -77.2538   30.1369  -76.9663 C.3       11 UNK        -0.0857 
     47 S47       -76.2388   31.3815  -76.0998 S.3       11 UNK        -0.2512 
     48 C48       -77.4911   32.2779  -75.1301 C.3       11 UNK         0.0225 
     49 N         -77.6462   27.6894  -77.1959 N.am      5 UNK        -0.4615 
     50 C         -77.4351   26.3670  -77.2099 C.2       4 UNK         0.5053 
     51 O         -76.3326   25.8394  -77.0454 O.2       4 UNK        -0.5105 
     52 CA        -78.6533   25.4931  -77.5406 C.3       4 UNK         0.0263 
     53 CB        -78.7070   25.2236  -79.0534 C.3       4 UNK        -0.1981 
     54 N         -78.6375   24.2139  -76.8290 N.am      4 UNK        -0.4224 
     55 C         -78.7194   24.0732  -75.4999 C.2       3 UNK         0.4895 
     56 O         -78.7961   25.0122  -74.7023 O.2       3 UNK        -0.5091 
     57 CA        -78.7113   22.6329  -74.9748 C.3       3 UNK         0.0250 
     58 CB        -77.2705   22.1445  -74.7502 C.3       3 UNK        -0.1996 
     59 N         -79.4315   22.6060  -73.7063 N.am      3 UNK        -0.4254 
     60 C         -80.4586   21.8079  -73.3914 C.2       2 UNK         0.5004 
     61 O         -80.8709   20.9022  -74.1169 O.2       2 UNK        -0.5226 
     62 CA        -81.1461   22.0560  -72.0339 C.3       2 UNK         0.0269 
     63 CB        -80.8026   20.9321  -71.0423 C.3       2 UNK        -0.1926 
     64 N         -80.7698   23.3422  -71.4389 N.am      2 UNK        -0.4687 
     65 C         -81.2859   24.5316  -71.7771 C.2       1 UNK         0.5165 
     66 O         -82.2408   24.6578  -72.5454 O.2       1 UNK        -0.5079 
     67 H67       -76.8193   25.8834  -72.5503 H         1 UNK         0.0900 
     68 H68       -76.4471   24.2424  -72.0185 H         1 UNK         0.0900 
     69 H69       -76.0941   25.6073  -70.9571 H         1 UNK         0.0900 
     70 H70       -78.9922   26.3808  -72.4041 H         1 UNK         0.2959 
     71 H71       -80.6075   25.6184  -70.0919 H         1 UNK         0.1079 
     72 H72       -82.3660   27.0341  -71.2308 H         1 UNK         0.0837 
     73 H73       -80.9203   27.8491  -70.7307 H         1 UNK         0.0837 
     74 H74       -81.5957   29.8004  -71.8662 H         1 UNK         0.0685 
     75 H75       -81.7074   30.0612  -73.5809 H         1 UNK         0.0685 
     76 H76       -79.8844   30.9936  -74.7938 H         1 UNK         0.1434 
     77 H77       -76.1679   31.7867  -72.8143 H         1 UNK         0.1329 
     78 H78       -79.2059   29.5035  -70.8271 H         1 UNK         0.1335 
     79 H79       -77.2419   30.7469  -69.5806 H         1 UNK         0.0680 
     80 H80       -75.8529   31.1986  -70.5339 H         1 UNK         0.0680 
     81 H81       -75.0473   27.4642  -72.0129 H         1 UNK         0.1032 
     82 H82       -75.7527   28.8964  -72.6775 H         1 UNK         0.1032 
     83 H83       -73.7822   30.2322  -71.7933 H         1 UNK         0.0461 
     84 H84       -71.8784   27.1965  -72.1602 H         1 UNK         0.3453 
     85 H85       -71.2742   27.2300  -70.5217 H         1 UNK         0.3453 
     86 H86       -73.7704   28.3683  -73.9333 H         1 UNK         0.2984 
     87 H87       -72.0760   29.5725  -76.0026 H         1 UNK         0.0554 
     88 H88       -69.9215   28.3551  -76.4348 H         1 UNK         0.0847 
     89 H89       -69.7103   28.1248  -74.6995 H         1 UNK         0.0847 
     90 H90       -69.7006   29.7426  -75.3830 H         1 UNK         0.0847 
     91 H91       -73.0233   27.6149  -76.3235 H         1 UNK         0.3141 
     92 H92       -72.6606   24.3502  -75.0033 H         1 UNK         0.0743 
     93 H93       -74.1713   25.2981  -73.2628 H         1 UNK         0.0784 
     94 H94       -75.0375   26.2190  -74.4903 H         1 UNK         0.0784 
     95 H95       -75.0882   24.4607  -74.5045 H         1 UNK         0.0784 
     96 H96       -74.5914   25.5096  -76.7956 H         1 UNK         0.3213 
     97 H97       -72.7828   24.5178  -79.7433 H         1 UNK         0.0855 
     98 H98       -75.3471   23.6321  -78.3084 H         1 UNK         0.0814 
     99 H99       -74.0276   22.5831  -78.8047 H         1 UNK         0.0814 
    100 H100      -74.9878   23.4110  -80.0192 H         1 UNK         0.0814 
    101 H101      -75.1937   26.0473  -78.9251 H         1 UNK         0.3105 
    102 H102      -73.9421   29.0961  -80.0974 H         1 UNK         0.0547 
    103 H103      -75.9516   27.3805  -81.6564 H         1 UNK         0.0837 
    104 H104      -75.8099   29.1380  -81.7307 H         1 UNK         0.0837 
    105 H105      -74.5091   28.1248  -82.3301 H         1 UNK         0.0837 
    106 H106      -76.5986   28.3383  -79.4431 H         1 UNK         0.3020 
    107 H107      -76.2943   28.5311  -75.8913 H         1 UNK         0.1245 
    108 H108      -78.2427   30.1211  -76.5078 H         1 UNK         0.0781 
    109 H109      -77.4141   30.4644  -77.9955 H         1 UNK         0.0781 
    110 H110      -78.3243   32.5579  -75.7767 H         1 UNK         0.0836 
    111 H111      -77.0558   33.2142  -74.7776 H         1 UNK         0.0836 
    112 H112      -78.5832   28.0257  -77.3635 H         1 UNK         0.3022 
    113 H113      -79.5593   26.0258  -77.2436 H         1 UNK         0.0747 
    114 H114      -79.5896   24.6431  -79.3226 H         1 UNK         0.0793 
    115 H115      -78.7524   26.1559  -79.6182 H         1 UNK         0.0793 
    116 H116      -77.8277   24.6770  -79.3978 H         1 UNK         0.0793 
    117 H117      -78.5381   23.3867  -77.3988 H         1 UNK         0.3047 
    118 H118      -79.2031   21.9901  -75.7082 H         1 UNK         0.0822 
    119 H119      -76.6897   22.1901  -75.6726 H         1 UNK         0.0807 
    120 H120      -77.2549   21.1099  -74.4073 H         1 UNK         0.0807 
    121 H121      -76.7513   22.7491  -74.0066 H         1 UNK         0.0807 
    122 H122      -79.2300   23.3821  -73.0915 H         1 UNK         0.2946 
    123 H123      -82.2245   22.0459  -72.2088 H         1 UNK         0.1144 
    124 H124      -81.0927   19.9581  -71.4390 H         1 UNK         0.0793 
    125 H125      -81.3276   21.0640  -70.0960 H         1 UNK         0.0793 
    126 H126      -79.7331   20.8932  -70.8309 H         1 UNK         0.0793 
    127 H127      -79.9703   23.3440  -70.8117 H         1 UNK         0.2896 
@<TRIPOS>BOND
     1    1    2 1    
     2    1   67 1    
     3    1   68 1    
     4    1   69 1    
     5    2    3 2    
     6    2    4 am   BACKBONE|DICT|INTERRES
     7    4    5 1    
     8    4   70 1    
     9    5    6 1    
    10    5   65 1    
    11    5   71 1    
    12    6    7 1    
    13    6   72 1    
    14    6   73 1    
    15    7    8 1    
    16    8    9 1    
    17    8   74 1    
    18    8   75 1    
    19    9   10 ar   
    20    9   14 ar   
    21   10   11 ar   
    22   10   76 1    
    23   11   12 ar   
    24   11   48 1    
    25   12   13 ar   
    26   12   77 1    
    27   13   14 ar   
    28   13   15 1    
    29   14   78 1    
    30   15   16 1    
    31   15   79 1    
    32   15   80 1    
    33   16   17 1    
    34   17   18 1    
    35   17   81 1    
    36   17   82 1    
    37   18   19 1    
    38   18   22 1    
    39   18   83 1    
    40   19   20 am   BACKBONE|DICT|INTERRES
    41   19   21 2    
    42   20   84 1    
    43   20   85 1    
    44   22   23 am   BACKBONE|DICT|INTERRES
    45   22   86 1    
    46   23   24 2    
    47   23   25 1    
    48   25   26 1    
    49   25   27 1    
    50   25   87 1    
    51   26   88 1    
    52   26   89 1    
    53   26   90 1    
    54   27   28 am   BACKBONE|DICT|INTERRES
    55   27   91 1    
    56   28   29 2    
    57   28   30 1    
    58   30   31 1    
    59   30   32 1    
    60   30   92 1    
    61   31   93 1    
    62   31   94 1    
    63   31   95 1    
    64   32   33 am   BACKBONE|DICT|INTERRES
    65   32   96 1    
    66   33   34 2    
    67   33   35 1    
    68   35   36 1    
    69   35   37 1    
    70   35   97 1    
    71   36   98 1    
    72   36   99 1    
    73   36  100 1    
    74   37   38 am   BACKBONE|DICT|INTERRES
    75   37  101 1    
    76   38   39 2    
    77   38   40 1    
    78   40   41 1    
    79   40   42 1    
    80   40  102 1    
    81   41  103 1    
    82   41  104 1    
    83   41  105 1    
    84   42   43 am   BACKBONE|DICT|INTERRES
    85   42  106 1    
    86   43   44 2    
    87   43   45 1    
    88   45   46 1    
    89   45   49 1    
    90   45  107 1    
    91   46   47 1    
    92   46  108 1    
    93   46  109 1    
    94   47   48 1    
    95   48  110 1    
    96   48  111 1    
    97   49   50 am   BACKBONE|DICT|INTERRES
    98   49  112 1    
    99   50   51 2    
   100   50   52 1    
   101   52   53 1    
   102   52   54 1    
   103   52  113 1    
   104   53  114 1    
   105   53  115 1    
   106   53  116 1    
   107   54   55 am   BACKBONE|DICT|INTERRES
   108   54  117 1    
   109   55   56 2    
   110   55   57 1    
   111   57   58 1    
   112   57   59 1    
   113   57  118 1    
   114   58  119 1    
   115   58  120 1    
   116   58  121 1    
   117   59   60 am   BACKBONE|DICT|INTERRES
   118   59  122 1    
   119   60   61 2    
   120   60   62 1    
   121   62   63 1    
   122   62   64 1    
   123   62  123 1    
   124   63  124 1    
   125   63  125 1    
   126   63  126 1    
   127   64   65 am   BACKBONE|DICT|INTERRES
   128   64  127 1    
   129   65   66 2    
@<TRIPOS>SUBSTRUCTURE
     1 UNK         1 GROUP             0       ****    0 ROOT    
