@<TRIPOS>MOLECULE
3R135
127   129    1
SMALL
USER_CHARGES


@<TRIPOS>ATOM
      1 CA        -77.4367   26.5693  -71.9257 C.3       0 UNK        -0.1998 
      2 C         -78.7804   26.1200  -71.3855 C.2       0 UNK         0.4909 
      3 O         -78.8845   25.0301  -70.8232 O.2       0 UNK        -0.5240 
      4 N         -79.8159   26.9461  -71.5741 N.am      1 UNK        -0.4739 
      5 CA        -81.1986   26.6637  -71.1611 C.3       1 UNK         0.0864 
      6 C6        -82.0123   27.9639  -70.9476 C.3       11 UNK        -0.0881 
      7 S7        -81.3016   28.9813  -69.6057 S.3       11 UNK        -0.2682 
      8 C8        -80.8504   30.5243  -70.4601 C.3       11 UNK         0.0289 
      9 C9        -79.7141   30.3373  -71.4566 C.ar      11 UNK        -0.0687 
     10 C10       -79.9828   30.3188  -72.8279 C.ar      11 UNK        -0.0823 
     11 C11       -78.9495   30.1980  -73.7610 C.ar      11 UNK        -0.0830 
     12 C12       -77.6306   30.0880  -73.3006 C.ar      11 UNK        -0.1021 
     13 C13       -77.3444   30.1085  -71.9324 C.ar      11 UNK        -0.0753 
     14 C14       -78.3917   30.2304  -71.0134 C.ar      11 UNK        -0.0933 
     15 C15       -75.8997   30.0148  -71.4597 C.3       11 UNK         0.0166 
     16 S16       -74.9567   31.4894  -71.9557 S.3       11 UNK        -0.2615 
     17 C17       -73.3215   31.1745  -71.2118 C.3       11 UNK        -0.0865 
     18 CA        -72.2764   30.6732  -72.2550 C.3       10 UNK         0.0862 
     19 C         -70.7998   30.9281  -71.8126 C.2       10 UNK         0.5551 
     20 N         -69.8409   30.0970  -72.2037 N.am      10 UNK        -0.7319 
     21 O         -70.5070   31.9113  -71.1362 O.2       10 UNK        -0.5018 
     22 N         -72.5463   29.2995  -72.7242 N.am      10 UNK        -0.4509 
     23 C         -72.4749   28.1816  -71.9902 C.2       10 UNK         0.4899 
     24 O         -72.2227   28.1704  -70.7855 O.2       10 UNK        -0.4839 
     25 CA        -72.6966   26.8346  -72.7039 C.3       9 UNK         0.0222 
     26 CB        -74.1850   26.4570  -72.7139 C.3       9 UNK        -0.1966 
     27 N         -72.1039   26.7122  -74.0439 N.am      9 UNK        -0.4218 
     28 C         -72.4102   27.3600  -75.1772 C.2       9 UNK         0.5020 
     29 O         -73.2715   28.2353  -75.2625 O.2       9 UNK        -0.5274 
     30 CA        -71.6005   26.9705  -76.4203 C.3       8 UNK         0.0270 
     31 CB        -70.1479   26.5535  -76.0777 C.3       8 UNK        -0.1976 
     32 N         -72.3220   25.9109  -77.1255 N.am      8 UNK        -0.4313 
     33 C         -71.9878   25.3868  -78.3127 C.2       8 UNK         0.5041 
     34 O         -71.0075   25.7347  -78.9727 O.2       8 UNK        -0.5577 
     35 CA        -72.9187   24.3029  -78.8767 C.3       7 UNK         0.0284 
     36 CB        -72.9132   23.0332  -78.0068 C.3       7 UNK        -0.1958 
     37 N         -74.2803   24.8138  -79.0195 N.am      7 UNK        -0.4454 
     38 C         -74.6934   25.5917  -80.0305 C.2       7 UNK         0.5089 
     39 O         -73.9970   25.8788  -81.0047 O.2       7 UNK        -0.5125 
     40 CA        -76.1247   26.1502  -79.9476 C.3       6 UNK         0.0408 
     41 CB        -77.0881   25.3030  -80.7940 C.3       6 UNK        -0.1791 
     42 N         -76.6171   26.2345  -78.5697 N.am      6 UNK        -0.4762 
     43 C         -76.2338   27.1812  -77.6972 C.2       6 UNK         0.5007 
     44 O         -75.4512   28.0858  -77.9895 O.2       6 UNK        -0.5032 
     45 CA        -76.7966   27.0935  -76.2576 C.3       5 UNK         0.0783 
     46 C46       -78.1469   27.8435  -76.1323 C.3       11 UNK        -0.0857 
     47 S47       -78.0261   29.6440  -76.3935 S.3       11 UNK        -0.2512 
     48 C48       -79.3059   30.2569  -75.2474 C.3       11 UNK         0.0225 
     49 N         -76.9513   25.7084  -75.7994 N.am      5 UNK        -0.4615 
     50 C         -75.9719   24.7961  -75.7116 C.2       4 UNK         0.5053 
     51 O         -74.7838   25.0514  -75.9068 O.2       4 UNK        -0.5105 
     52 CA        -76.3864   23.3367  -75.4298 C.3       4 UNK         0.0263 
     53 CB        -76.2090   22.9989  -73.9420 C.3       4 UNK        -0.1981 
     54 N         -77.7604   23.0184  -75.8376 N.am      4 UNK        -0.4224 
     55 C         -78.2434   23.1384  -77.0835 C.2       3 UNK         0.4895 
     56 O         -77.5430   23.4316  -78.0516 O.2       3 UNK        -0.5091 
     57 CA        -79.7616   22.9702  -77.2910 C.3       3 UNK         0.0250 
     58 CB        -80.0625   21.5933  -77.9046 C.3       3 UNK        -0.1996 
     59 N         -80.6031   23.1595  -76.0996 N.am      3 UNK        -0.4254 
     60 C         -80.6196   24.2285  -75.2889 C.2       2 UNK         0.5004 
     61 O         -79.8500   25.1875  -75.4074 O.2       2 UNK        -0.5226 
     62 CA        -81.6327   24.2048  -74.1307 C.3       2 UNK         0.0269 
     63 CB        -81.6897   22.8233  -73.4363 C.3       2 UNK        -0.1926 
     64 N         -81.2420   25.2389  -73.1767 N.am      2 UNK        -0.4687 
     65 C         -81.9193   25.6716  -72.1064 C.2       1 UNK         0.5165 
     66 O         -83.0630   25.3016  -71.8359 O.2       1 UNK        -0.5079 
     67 H67       -77.5487   27.2550  -72.7646 H         1 UNK         0.0900 
     68 H68       -76.8692   27.0664  -71.1401 H         1 UNK         0.0900 
     69 H69       -76.8696   25.7079  -72.2728 H         1 UNK         0.0900 
     70 H70       -79.6634   27.8497  -72.0018 H         1 UNK         0.2959 
     71 H71       -81.1561   26.1520  -70.1966 H         1 UNK         0.1079 
     72 H72       -83.0407   27.7319  -70.6639 H         1 UNK         0.0837 
     73 H73       -82.0782   28.5383  -71.8725 H         1 UNK         0.0837 
     74 H74       -81.7347   30.9349  -70.9504 H         1 UNK         0.0685 
     75 H75       -80.5519   31.2611  -69.7129 H         1 UNK         0.0685 
     76 H76       -81.0026   30.4253  -73.1732 H         1 UNK         0.1434 
     77 H77       -76.8082   30.0154  -73.9981 H         1 UNK         0.1329 
     78 H78       -78.1807   30.2553  -69.9529 H         1 UNK         0.1335 
     79 H79       -75.4348   29.1278  -71.8898 H         1 UNK         0.0680 
     80 H80       -75.8532   29.9016  -70.3755 H         1 UNK         0.0680 
     81 H81       -73.4090   30.4854  -70.3711 H         1 UNK         0.1032 
     82 H82       -73.0090   32.1246  -70.7754 H         1 UNK         0.1032 
     83 H83       -72.3849   31.2984  -73.1419 H         1 UNK         0.0461 
     84 H84       -68.8887   30.2746  -71.9252 H         1 UNK         0.3453 
     85 H85       -70.0624   29.2939  -72.7689 H         1 UNK         0.3453 
     86 H86       -72.7917   29.1959  -73.7055 H         1 UNK         0.2984 
     87 H87       -72.1830   26.0849  -72.0998 H         1 UNK         0.0554 
     88 H88       -74.5815   26.4594  -71.6986 H         1 UNK         0.0847 
     89 H89       -74.3337   25.4568  -73.1181 H         1 UNK         0.0847 
     90 H90       -74.7809   27.1512  -73.3068 H         1 UNK         0.0847 
     91 H91       -71.3549   26.0367  -74.1076 H         1 UNK         0.3141 
     92 H92       -71.5653   27.8481  -77.0690 H         1 UNK         0.0743 
     93 H93       -70.1001   25.5710  -75.6069 H         1 UNK         0.0784 
     94 H94       -69.5242   26.5163  -76.9704 H         1 UNK         0.0784 
     95 H95       -69.6774   27.2721  -75.4048 H         1 UNK         0.0784 
     96 H96       -73.1812   25.5953  -76.6731 H         1 UNK         0.3213 
     97 H97       -72.5459   24.0234  -79.8649 H         1 UNK         0.0855 
     98 H98       -73.2630   23.2202  -76.9921 H         1 UNK         0.0814 
     99 H99       -71.9051   22.6237  -77.9295 H         1 UNK         0.0814 
    100 H100      -73.5446   22.2565  -78.4386 H         1 UNK         0.0814 
    101 H101      -74.9145   24.6590  -78.2483 H         1 UNK         0.3105 
    102 H102      -76.1114   27.1576  -80.3695 H         1 UNK         0.0547 
    103 H103      -76.7937   25.3175  -81.8442 H         1 UNK         0.0837 
    104 H104      -77.0986   24.2596  -80.4787 H         1 UNK         0.0837 
    105 H105      -78.1083   25.6826  -80.7390 H         1 UNK         0.0837 
    106 H106      -77.2110   25.4748  -78.2548 H         1 UNK         0.3020 
    107 H107      -76.0667   27.5711  -75.5993 H         1 UNK         0.1245 
    108 H108      -78.5615   27.6724  -75.1376 H         1 UNK         0.0781 
    109 H109      -78.8815   27.4398  -76.8320 H         1 UNK         0.0781 
    110 H110      -80.2279   29.7025  -75.4308 H         1 UNK         0.0836 
    111 H111      -79.5172   31.2960  -75.5028 H         1 UNK         0.0836 
    112 H112      -77.9083   25.4088  -75.6337 H         1 UNK         0.3022 
    113 H113      -75.7168   22.6968  -76.0082 H         1 UNK         0.0747 
    114 H114      -76.3855   21.9397  -73.7539 H         1 UNK         0.0793 
    115 H115      -75.1938   23.2176  -73.6084 H         1 UNK         0.0793 
    116 H116      -76.8938   23.5679  -73.3129 H         1 UNK         0.0793 
    117 H117      -78.4078   22.7753  -75.1027 H         1 UNK         0.3047 
    118 H118      -80.0605   23.7345  -78.0113 H         1 UNK         0.0822 
    119 H119      -81.1124   21.5019  -78.1835 H         1 UNK         0.0807 
    120 H120      -79.8251   20.7833  -77.2136 H         1 UNK         0.0807 
    121 H121      -79.4758   21.4311  -78.8103 H         1 UNK         0.0807 
    122 H122      -81.2595   22.4165  -75.9071 H         1 UNK         0.2946 
    123 H123      -82.6147   24.4556  -74.5370 H         1 UNK         0.1144 
    124 H124      -82.0394   22.0436  -74.1133 H         1 UNK         0.0793 
    125 H125      -82.3787   22.8235  -72.5920 H         1 UNK         0.0793 
    126 H126      -80.7106   22.5226  -73.0609 H         1 UNK         0.0793 
    127 H127      -80.3355   25.6459  -73.3706 H         1 UNK         0.2896 
@<TRIPOS>BOND
     1    1    2 1    
     2    1   67 1    
     3    1   68 1    
     4    1   69 1    
     5    2    3 2    
     6    2    4 am   BACKBONE|DICT|INTERRES
     7    4    5 1    
     8    4   70 1    
     9    5    6 1    
    10    5   65 1    
    11    5   71 1    
    12    6    7 1    
    13    6   72 1    
    14    6   73 1    
    15    7    8 1    
    16    8    9 1    
    17    8   74 1    
    18    8   75 1    
    19    9   10 ar   
    20    9   14 ar   
    21   10   11 ar   
    22   10   76 1    
    23   11   12 ar   
    24   11   48 1    
    25   12   13 ar   
    26   12   77 1    
    27   13   14 ar   
    28   13   15 1    
    29   14   78 1    
    30   15   16 1    
    31   15   79 1    
    32   15   80 1    
    33   16   17 1    
    34   17   18 1    
    35   17   81 1    
    36   17   82 1    
    37   18   19 1    
    38   18   22 1    
    39   18   83 1    
    40   19   20 am   BACKBONE|DICT|INTERRES
    41   19   21 2    
    42   20   84 1    
    43   20   85 1    
    44   22   23 am   BACKBONE|DICT|INTERRES
    45   22   86 1    
    46   23   24 2    
    47   23   25 1    
    48   25   26 1    
    49   25   27 1    
    50   25   87 1    
    51   26   88 1    
    52   26   89 1    
    53   26   90 1    
    54   27   28 am   BACKBONE|DICT|INTERRES
    55   27   91 1    
    56   28   29 2    
    57   28   30 1    
    58   30   31 1    
    59   30   32 1    
    60   30   92 1    
    61   31   93 1    
    62   31   94 1    
    63   31   95 1    
    64   32   33 am   BACKBONE|DICT|INTERRES
    65   32   96 1    
    66   33   34 2    
    67   33   35 1    
    68   35   36 1    
    69   35   37 1    
    70   35   97 1    
    71   36   98 1    
    72   36   99 1    
    73   36  100 1    
    74   37   38 am   BACKBONE|DICT|INTERRES
    75   37  101 1    
    76   38   39 2    
    77   38   40 1    
    78   40   41 1    
    79   40   42 1    
    80   40  102 1    
    81   41  103 1    
    82   41  104 1    
    83   41  105 1    
    84   42   43 am   BACKBONE|DICT|INTERRES
    85   42  106 1    
    86   43   44 2    
    87   43   45 1    
    88   45   46 1    
    89   45   49 1    
    90   45  107 1    
    91   46   47 1    
    92   46  108 1    
    93   46  109 1    
    94   47   48 1    
    95   48  110 1    
    96   48  111 1    
    97   49   50 am   BACKBONE|DICT|INTERRES
    98   49  112 1    
    99   50   51 2    
   100   50   52 1    
   101   52   53 1    
   102   52   54 1    
   103   52  113 1    
   104   53  114 1    
   105   53  115 1    
   106   53  116 1    
   107   54   55 am   BACKBONE|DICT|INTERRES
   108   54  117 1    
   109   55   56 2    
   110   55   57 1    
   111   57   58 1    
   112   57   59 1    
   113   57  118 1    
   114   58  119 1    
   115   58  120 1    
   116   58  121 1    
   117   59   60 am   BACKBONE|DICT|INTERRES
   118   59  122 1    
   119   60   61 2    
   120   60   62 1    
   121   62   63 1    
   122   62   64 1    
   123   62  123 1    
   124   63  124 1    
   125   63  125 1    
   126   63  126 1    
   127   64   65 am   BACKBONE|DICT|INTERRES
   128   64  127 1    
   129   65   66 2    
@<TRIPOS>SUBSTRUCTURE
     1 UNK         1 GROUP             0       ****    0 ROOT    
