@<TRIPOS>MOLECULE
3R135
127   129    1
SMALL
USER_CHARGES


@<TRIPOS>ATOM
      1 CA        -83.6334   31.7174  -71.1756 C.3       0 UNK        -0.1998 
      2 C         -82.4912   30.9689  -71.8451 C.2       0 UNK         0.4909 
      3 O         -81.5539   31.5951  -72.3426 O.2       0 UNK        -0.5240 
      4 N         -82.5603   29.6319  -71.8700 N.am      1 UNK        -0.4739 
      5 CA        -81.5591   28.7396  -72.4667 C.3       1 UNK         0.0864 
      6 C6        -81.5909   27.3277  -71.8209 C.3       11 UNK        -0.0881 
      7 S7        -81.1853   27.3687  -70.0394 S.3       11 UNK        -0.2682 
      8 C8        -80.0773   25.9224  -69.8603 C.3       11 UNK         0.0289 
      9 C9        -78.6373   26.0949  -70.3553 C.ar      11 UNK        -0.0687 
     10 C10       -77.6986   25.1114  -70.0239 C.ar      11 UNK        -0.0823 
     11 C11       -76.3712   25.2057  -70.4560 C.ar      11 UNK        -0.0830 
     12 C12       -75.9849   26.2843  -71.2579 C.ar      11 UNK        -0.1021 
     13 C13       -76.9106   27.2720  -71.6052 C.ar      11 UNK        -0.0753 
     14 C14       -78.2219   27.1822  -71.1336 C.ar      11 UNK        -0.0933 
     15 C15       -76.5048   28.4519  -72.4736 C.3       11 UNK         0.0166 
     16 S16       -77.3261   28.4047  -74.0995 S.3       11 UNK        -0.2615 
     17 C17       -76.6924   29.9559  -74.8278 C.3       11 UNK        -0.0865 
     18 CA        -76.2251   29.8276  -76.3032 C.3       10 UNK         0.0862 
     19 C         -75.6195   31.1789  -76.7894 C.2       10 UNK         0.5551 
     20 N         -74.3147   31.2796  -77.0214 N.am      10 UNK        -0.7319 
     21 O         -76.3475   32.1550  -76.9493 O.2       10 UNK        -0.5018 
     22 N         -75.3543   28.6620  -76.5121 N.am      10 UNK        -0.4509 
     23 C         -74.9901   28.1716  -77.7046 C.2       10 UNK         0.4899 
     24 O         -75.4700   28.5510  -78.7734 O.2       10 UNK        -0.4839 
     25 CA        -73.9040   27.0754  -77.7030 C.3       9 UNK         0.0222 
     26 CB        -72.9900   27.1519  -78.9430 C.3       9 UNK        -0.1966 
     27 N         -73.1000   27.0341  -76.4738 N.am      9 UNK        -0.4218 
     28 C         -72.3355   28.0067  -75.9498 C.2       9 UNK         0.5020 
     29 O         -72.1986   29.1233  -76.4519 O.2       9 UNK        -0.5274 
     30 CA        -71.6459   27.6913  -74.6147 C.3       8 UNK         0.0270 
     31 CB        -72.6330   27.8811  -73.4504 C.3       8 UNK        -0.1976 
     32 N         -71.1373   26.3193  -74.5963 N.am      8 UNK        -0.4313 
     33 C         -69.8624   25.9716  -74.8175 C.2       8 UNK         0.5041 
     34 O         -68.9464   26.7791  -74.9800 O.2       8 UNK        -0.5577 
     35 CA        -69.5496   24.4636  -74.8721 C.3       7 UNK         0.0284 
     36 CB        -69.1319   23.9511  -73.4842 C.3       7 UNK        -0.1958 
     37 N         -70.6706   23.6600  -75.3678 N.am      7 UNK        -0.4454 
     38 C         -71.1498   23.7092  -76.6187 C.2       7 UNK         0.5089 
     39 O         -70.6335   24.3648  -77.5234 O.2       7 UNK        -0.5125 
     40 CA        -72.4376   22.9160  -76.9101 C.3       6 UNK         0.0408 
     41 CB        -72.1007   21.5966  -77.6228 C.3       6 UNK        -0.1791 
     42 N         -73.2798   22.6302  -75.7392 N.am      6 UNK        -0.4762 
     43 C         -73.8479   23.5492  -74.9448 C.2       6 UNK         0.5007 
     44 O         -73.6192   24.7581  -75.0247 O.2       6 UNK        -0.5032 
     45 CA        -74.8148   23.0429  -73.8587 C.3       5 UNK         0.0783 
     46 C46       -74.2188   23.3020  -72.4543 C.3       11 UNK        -0.0857 
     47 S47       -75.3038   22.7150  -71.1096 S.3       11 UNK        -0.2512 
     48 C48       -75.3525   24.1651  -70.0093 C.3       11 UNK         0.0225 
     49 N         -76.1434   23.6429  -74.0152 N.am      5 UNK        -0.4615 
     50 C         -76.9478   23.4847  -75.0746 C.2       4 UNK         0.5053 
     51 O         -76.6432   22.8424  -76.0799 O.2       4 UNK        -0.5105 
     52 CA        -78.3357   24.1296  -75.0067 C.3       4 UNK         0.0263 
     53 CB        -78.8179   24.4566  -73.5787 C.3       4 UNK        -0.1981 
     54 N         -78.3363   25.3380  -75.8255 N.am      4 UNK        -0.4224 
     55 C         -79.4102   25.8162  -76.4601 C.2       3 UNK         0.4895 
     56 O         -80.5127   25.2631  -76.4626 O.2       3 UNK        -0.5091 
     57 CA        -79.2414   27.1410  -77.2089 C.3       3 UNK         0.0250 
     58 CB        -79.3394   26.9426  -78.7333 C.3       3 UNK        -0.1996 
     59 N         -80.2855   28.0335  -76.7197 N.am      3 UNK        -0.4254 
     60 C         -80.3636   29.3559  -76.8850 C.2       2 UNK         0.5004 
     61 O         -79.5945   30.0095  -77.5886 O.2       2 UNK        -0.5226 
     62 CA        -81.4762   30.0872  -76.1125 C.3       2 UNK         0.0269 
     63 CB        -82.8635   29.8288  -76.7336 C.3       2 UNK        -0.1926 
     64 N         -81.4657   29.8260  -74.6640 N.am      2 UNK        -0.4687 
     65 C         -81.7204   28.6877  -74.0016 C.2       1 UNK         0.5165 
     66 O         -82.0766   27.6431  -74.5493 O.2       1 UNK        -0.5079 
     67 H67       -83.2532   32.3234  -70.3538 H         1 UNK         0.0900 
     68 H68       -84.1185   32.3798  -71.8920 H         1 UNK         0.0900 
     69 H69       -84.3868   31.0388  -70.7761 H         1 UNK         0.0900 
     70 H70       -83.3578   29.1703  -71.4560 H         1 UNK         0.2959 
     71 H71       -80.5714   29.1662  -72.2824 H         1 UNK         0.1079 
     72 H72       -80.8845   26.6667  -72.3265 H         1 UNK         0.0837 
     73 H73       -82.5735   26.8679  -71.9424 H         1 UNK         0.0837 
     74 H74       -80.0488   25.6652  -68.8004 H         1 UNK         0.0685 
     75 H75       -80.5265   25.0684  -70.3695 H         1 UNK         0.0685 
     76 H76       -77.9999   24.2707  -69.4135 H         1 UNK         0.1434 
     77 H77       -74.9615   26.3667  -71.5957 H         1 UNK         0.1329 
     78 H78       -78.9115   27.9649  -71.4006 H         1 UNK         0.1335 
     79 H79       -75.4241   28.4721  -72.6149 H         1 UNK         0.0680 
     80 H80       -76.7694   29.3790  -71.9626 H         1 UNK         0.0680 
     81 H81       -75.8719   30.3293  -74.2119 H         1 UNK         0.1032 
     82 H82       -77.4841   30.7040  -74.7528 H         1 UNK         0.1032 
     83 H83       -77.1116   29.6607  -76.9140 H         1 UNK         0.0461 
     84 H84       -73.9370   32.1595  -77.3343 H         1 UNK         0.3453 
     85 H85       -73.6965   30.4887  -76.8786 H         1 UNK         0.3453 
     86 H86       -74.9229   28.2801  -75.6851 H         1 UNK         0.2984 
     87 H87       -74.4365   26.1240  -77.7426 H         1 UNK         0.0554 
     88 H88       -73.5639   27.0379  -79.8634 H         1 UNK         0.0847 
     89 H89       -72.2400   26.3608  -78.9311 H         1 UNK         0.0847 
     90 H90       -72.4682   28.1077  -79.0013 H         1 UNK         0.0847 
     91 H91       -73.2071   26.1746  -75.9348 H         1 UNK         0.3141 
     92 H92       -70.8265   28.4015  -74.4843 H         1 UNK         0.0743 
     93 H93       -73.0329   28.8961  -73.4398 H         1 UNK         0.0784 
     94 H94       -73.4774   27.1939  -73.5173 H         1 UNK         0.0784 
     95 H95       -72.1452   27.7163  -72.4895 H         1 UNK         0.0784 
     96 H96       -71.8295   25.5832  -74.5167 H         1 UNK         0.3213 
     97 H97       -68.7089   24.3271  -75.5561 H         1 UNK         0.0855 
     98 H98       -69.9392   24.0455  -72.7568 H         1 UNK         0.0814 
     99 H99       -68.2811   24.5164  -73.1008 H         1 UNK         0.0814 
    100 H100      -68.8315   22.9037  -73.5208 H         1 UNK         0.0814 
    101 H101      -71.1460   23.0697  -74.7013 H         1 UNK         0.3105 
    102 H102      -73.0347   23.5251  -77.5922 H         1 UNK         0.0547 
    103 H103      -71.5004   21.7765  -78.5160 H         1 UNK         0.0837 
    104 H104      -73.0029   21.0756  -77.9438 H         1 UNK         0.0837 
    105 H105      -71.5326   20.9234  -76.9796 H         1 UNK         0.0837 
    106 H106      -73.5172   21.6583  -75.5969 H         1 UNK         0.3020 
    107 H107      -74.9375   21.9644  -73.9794 H         1 UNK         0.1245 
    108 H108      -74.0068   24.3634  -72.3192 H         1 UNK         0.0781 
    109 H109      -73.2603   22.7901  -72.3482 H         1 UNK         0.0781 
    110 H110      -74.3581   24.6080  -69.9321 H         1 UNK         0.0836 
    111 H111      -75.6013   23.8247  -69.0029 H         1 UNK         0.0836 
    112 H112      -76.4726   24.1875  -73.2311 H         1 UNK         0.3022 
    113 H113      -79.0263   23.4003  -75.4359 H         1 UNK         0.0747 
    114 H114      -78.7406   23.5908  -72.9195 H         1 UNK         0.0793 
    115 H115      -78.2394   25.2671  -73.1398 H         1 UNK         0.0793 
    116 H116      -79.8633   24.7651  -73.5805 H         1 UNK         0.0793 
    117 H117      -77.4571   25.8330  -75.8854 H         1 UNK         0.3047 
    118 H118      -78.2698   27.5738  -76.9653 H         1 UNK         0.0822 
    119 H119      -79.1710   27.8763  -79.2698 H         1 UNK         0.0807 
    120 H120      -80.3170   26.5581  -79.0266 H         1 UNK         0.0807 
    121 H121      -78.5885   26.2324  -79.0816 H         1 UNK         0.0807 
    122 H122      -80.9656   27.5965  -76.0995 H         1 UNK         0.2946 
    123 H123      -81.2715   31.1543  -76.2175 H         1 UNK         0.1144 
    124 H124      -83.1468   28.7769  -76.6904 H         1 UNK         0.0793 
    125 H125      -82.8774   30.1224  -77.7840 H         1 UNK         0.0793 
    126 H126      -83.6373   30.4048  -76.2261 H         1 UNK         0.0793 
    127 H127      -81.2238   30.6259  -74.0857 H         1 UNK         0.2896 
@<TRIPOS>BOND
     1    1    2 1    
     2    1   67 1    
     3    1   68 1    
     4    1   69 1    
     5    2    3 2    
     6    2    4 am   BACKBONE|DICT|INTERRES
     7    4    5 1    
     8    4   70 1    
     9    5    6 1    
    10    5   65 1    
    11    5   71 1    
    12    6    7 1    
    13    6   72 1    
    14    6   73 1    
    15    7    8 1    
    16    8    9 1    
    17    8   74 1    
    18    8   75 1    
    19    9   10 ar   
    20    9   14 ar   
    21   10   11 ar   
    22   10   76 1    
    23   11   12 ar   
    24   11   48 1    
    25   12   13 ar   
    26   12   77 1    
    27   13   14 ar   
    28   13   15 1    
    29   14   78 1    
    30   15   16 1    
    31   15   79 1    
    32   15   80 1    
    33   16   17 1    
    34   17   18 1    
    35   17   81 1    
    36   17   82 1    
    37   18   19 1    
    38   18   22 1    
    39   18   83 1    
    40   19   20 am   BACKBONE|DICT|INTERRES
    41   19   21 2    
    42   20   84 1    
    43   20   85 1    
    44   22   23 am   BACKBONE|DICT|INTERRES
    45   22   86 1    
    46   23   24 2    
    47   23   25 1    
    48   25   26 1    
    49   25   27 1    
    50   25   87 1    
    51   26   88 1    
    52   26   89 1    
    53   26   90 1    
    54   27   28 am   BACKBONE|DICT|INTERRES
    55   27   91 1    
    56   28   29 2    
    57   28   30 1    
    58   30   31 1    
    59   30   32 1    
    60   30   92 1    
    61   31   93 1    
    62   31   94 1    
    63   31   95 1    
    64   32   33 am   BACKBONE|DICT|INTERRES
    65   32   96 1    
    66   33   34 2    
    67   33   35 1    
    68   35   36 1    
    69   35   37 1    
    70   35   97 1    
    71   36   98 1    
    72   36   99 1    
    73   36  100 1    
    74   37   38 am   BACKBONE|DICT|INTERRES
    75   37  101 1    
    76   38   39 2    
    77   38   40 1    
    78   40   41 1    
    79   40   42 1    
    80   40  102 1    
    81   41  103 1    
    82   41  104 1    
    83   41  105 1    
    84   42   43 am   BACKBONE|DICT|INTERRES
    85   42  106 1    
    86   43   44 2    
    87   43   45 1    
    88   45   46 1    
    89   45   49 1    
    90   45  107 1    
    91   46   47 1    
    92   46  108 1    
    93   46  109 1    
    94   47   48 1    
    95   48  110 1    
    96   48  111 1    
    97   49   50 am   BACKBONE|DICT|INTERRES
    98   49  112 1    
    99   50   51 2    
   100   50   52 1    
   101   52   53 1    
   102   52   54 1    
   103   52  113 1    
   104   53  114 1    
   105   53  115 1    
   106   53  116 1    
   107   54   55 am   BACKBONE|DICT|INTERRES
   108   54  117 1    
   109   55   56 2    
   110   55   57 1    
   111   57   58 1    
   112   57   59 1    
   113   57  118 1    
   114   58  119 1    
   115   58  120 1    
   116   58  121 1    
   117   59   60 am   BACKBONE|DICT|INTERRES
   118   59  122 1    
   119   60   61 2    
   120   60   62 1    
   121   62   63 1    
   122   62   64 1    
   123   62  123 1    
   124   63  124 1    
   125   63  125 1    
   126   63  126 1    
   127   64   65 am   BACKBONE|DICT|INTERRES
   128   64  127 1    
   129   65   66 2    
@<TRIPOS>SUBSTRUCTURE
     1 UNK         1 GROUP             0       ****    0 ROOT    
