@<TRIPOS>MOLECULE
3R135
127   129    1
SMALL
USER_CHARGES


@<TRIPOS>ATOM
      1 CA        -77.2830   27.3134  -73.3720 C.3       0 UNK        -0.1998 
      2 C         -77.7903   26.5080  -72.1949 C.2       0 UNK         0.4909 
      3 O         -77.1891   25.4953  -71.8378 O.2       0 UNK        -0.5240 
      4 N         -78.9063   26.9404  -71.6000 N.am      1 UNK        -0.4739 
      5 CA        -79.6600   26.1581  -70.6227 C.3       1 UNK         0.0864 
      6 C6        -80.5916   27.0479  -69.7624 C.3       11 UNK        -0.0881 
      7 S7        -81.8100   28.0398  -70.6996 S.3       11 UNK        -0.2682 
      8 C8        -81.1508   29.7361  -70.5598 C.3       11 UNK         0.0289 
      9 C9        -80.1743   30.1162  -71.6706 C.ar      11 UNK        -0.0687 
     10 C10       -80.5121   29.9176  -73.0143 C.ar      11 UNK        -0.0823 
     11 C11       -79.6729   30.3712  -74.0367 C.ar      11 UNK        -0.0830 
     12 C12       -78.4898   31.0365  -73.7091 C.ar      11 UNK        -0.1021 
     13 C13       -78.1317   31.2356  -72.3716 C.ar      11 UNK        -0.0753 
     14 C14       -78.9732   30.7633  -71.3578 C.ar      11 UNK        -0.0933 
     15 C15       -76.8839   32.0398  -72.0243 C.3       11 UNK         0.0166 
     16 S16       -75.3838   31.4259  -72.8551 S.3       11 UNK        -0.2615 
     17 C17       -74.9200   30.0183  -71.7924 C.3       11 UNK        -0.0865 
     18 CA        -73.4277   29.6278  -71.9693 C.3       10 UNK         0.0862 
     19 C         -72.9889   28.5478  -70.9352 C.2       10 UNK         0.5551 
     20 N         -72.3673   27.4430  -71.3307 N.am      10 UNK        -0.7319 
     21 O         -73.2090   28.7223  -69.7393 O.2       10 UNK        -0.5018 
     22 N         -73.1158   29.2901  -73.3686 N.am      10 UNK        -0.4509 
     23 C         -71.9238   29.4587  -73.9531 C.2       10 UNK         0.4899 
     24 O         -70.9547   29.9790  -73.3975 O.2       10 UNK        -0.4839 
     25 CA        -71.8011   28.9346  -75.3997 C.3       9 UNK         0.0222 
     26 CB        -70.3399   28.8686  -75.8914 C.3       9 UNK        -0.1966 
     27 N         -72.4663   27.6405  -75.6100 N.am      9 UNK        -0.4218 
     28 C         -72.2510   26.5032  -74.9277 C.2       9 UNK         0.5020 
     29 O         -71.4789   26.4081  -73.9728 O.2       9 UNK        -0.5274 
     30 CA        -73.0428   25.2598  -75.3607 C.3       8 UNK         0.0270 
     31 CB        -74.3888   25.1937  -74.6242 C.3       8 UNK        -0.1976 
     32 N         -73.2818   25.1852  -76.8018 N.am      8 UNK        -0.4313 
     33 C         -72.3400   24.9751  -77.7316 C.2       8 UNK         0.5041 
     34 O         -71.1422   24.8357  -77.4816 O.2       8 UNK        -0.5577 
     35 CA        -72.8206   24.9016  -79.1877 C.3       7 UNK         0.0284 
     36 CB        -73.4428   23.5270  -79.4858 C.3       7 UNK        -0.1958 
     37 N         -73.7952   25.9545  -79.4762 N.am      7 UNK        -0.4454 
     38 C         -73.4743   27.1802  -79.9122 C.2       7 UNK         0.5089 
     39 O         -72.3246   27.5374  -80.1706 O.2       7 UNK        -0.5125 
     40 CA        -74.6277   28.1844  -80.0983 C.3       6 UNK         0.0408 
     41 CB        -75.1243   28.1643  -81.5526 C.3       6 UNK        -0.1791 
     42 N         -75.7614   27.9567  -79.1974 N.am      6 UNK        -0.4762 
     43 C         -75.7213   28.1242  -77.8681 C.2       6 UNK         0.5007 
     44 O         -74.7183   28.4851  -77.2514 O.2       6 UNK        -0.5032 
     45 CA        -76.9982   27.7673  -77.0862 C.3       5 UNK         0.0783 
     46 C46       -77.9477   28.9870  -76.9598 C.3       11 UNK        -0.0857 
     47 S47       -79.5244   28.5706  -76.1314 S.3       11 UNK        -0.2512 
     48 C48       -80.0717   30.1820  -75.4922 C.3       11 UNK         0.0225 
     49 N         -77.6888   26.5721  -77.5889 N.am      5 UNK        -0.4615 
     50 C         -77.1624   25.3469  -77.6840 C.2       4 UNK         0.5053 
     51 O         -75.9649   25.0978  -77.5385 O.2       4 UNK        -0.5105 
     52 CA        -78.1390   24.1977  -77.9721 C.3       4 UNK         0.0263 
     53 CB        -77.7213   23.4274  -79.2357 C.3       4 UNK        -0.1981 
     54 N         -78.1972   23.2773  -76.8336 N.am      4 UNK        -0.4224 
     55 C         -78.7196   23.5781  -75.6361 C.2       3 UNK         0.4895 
     56 O         -79.2750   24.6484  -75.3774 O.2       3 UNK        -0.5091 
     57 CA        -78.5882   22.5074  -74.5446 C.3       3 UNK         0.0250 
     58 CB        -77.1399   22.4302  -74.0228 C.3       3 UNK        -0.1996 
     59 N         -79.5004   22.8286  -73.4482 N.am      3 UNK        -0.4254 
     60 C         -79.9177   21.9916  -72.4915 C.2       2 UNK         0.5004 
     61 O         -79.5700   20.8106  -72.4295 O.2       2 UNK        -0.5226 
     62 CA        -80.8659   22.5725  -71.4176 C.3       2 UNK         0.0269 
     63 CB        -81.1907   21.5608  -70.3016 C.3       2 UNK        -0.1926 
     64 N         -80.3237   23.7914  -70.8047 N.am      2 UNK        -0.4687 
     65 C         -80.4011   25.0125  -71.3482 C.2       1 UNK         0.5165 
     66 O         -80.9967   25.2364  -72.4052 O.2       1 UNK        -0.5079 
     67 H67       -76.1951   27.3414  -73.3810 H         1 UNK         0.0900 
     68 H68       -77.6561   28.3363  -73.3567 H         1 UNK         0.0900 
     69 H69       -77.6355   26.8296  -74.2807 H         1 UNK         0.0900 
     70 H70       -79.3813   27.7616  -71.9507 H         1 UNK         0.2959 
     71 H71       -78.9386   25.7033  -69.9395 H         1 UNK         0.1079 
     72 H72       -81.1405   26.4295  -69.0497 H         1 UNK         0.0837 
     73 H73       -79.9822   27.7138  -69.1501 H         1 UNK         0.0837 
     74 H74       -80.7044   29.8783  -69.5746 H         1 UNK         0.0685 
     75 H75       -81.9926   30.4280  -70.6074 H         1 UNK         0.0685 
     76 H76       -81.4450   29.4312  -73.2662 H         1 UNK         0.1434 
     77 H77       -77.8516   31.4152  -74.4957 H         1 UNK         0.1329 
     78 H78       -78.7165   30.9441  -70.3228 H         1 UNK         0.1335 
     79 H79       -76.7187   32.0701  -70.9463 H         1 UNK         0.0680 
     80 H80       -77.0484   33.0725  -72.3345 H         1 UNK         0.0680 
     81 H81       -75.5749   29.1752  -72.0085 H         1 UNK         0.1032 
     82 H82       -75.1159   30.2947  -70.7546 H         1 UNK         0.1032 
     83 H83       -72.8439   30.5132  -71.7096 H         1 UNK         0.0461 
     84 H84       -72.0914   26.7658  -70.6380 H         1 UNK         0.3453 
     85 H85       -72.1311   27.2850  -72.3042 H         1 UNK         0.3453 
     86 H86       -73.8561   28.8602  -73.9012 H         1 UNK         0.2984 
     87 H87       -72.3287   29.6531  -76.0286 H         1 UNK         0.0554 
     88 H88       -70.2853   28.5243  -76.9243 H         1 UNK         0.0847 
     89 H89       -69.7394   28.1929  -75.2812 H         1 UNK         0.0847 
     90 H90       -69.8673   29.8507  -75.8525 H         1 UNK         0.0847 
     91 H91       -73.1771   27.6412  -76.3365 H         1 UNK         0.3141 
     92 H92       -72.4560   24.3843  -75.0747 H         1 UNK         0.0743 
     93 H93       -75.0514   26.0008  -74.9334 H         1 UNK         0.0784 
     94 H94       -74.8987   24.2528  -74.8277 H         1 UNK         0.0784 
     95 H95       -74.2572   25.2661  -73.5434 H         1 UNK         0.0784 
     96 H96       -74.2560   25.2267  -77.1010 H         1 UNK         0.3213 
     97 H97       -71.9500   25.0220  -79.8367 H         1 UNK         0.0855 
     98 H98       -74.3073   23.3243  -78.8530 H         1 UNK         0.0814 
     99 H99       -72.7200   22.7286  -79.3127 H         1 UNK         0.0814 
    100 H100      -73.7634   23.4538  -80.5250 H         1 UNK         0.0814 
    101 H101      -74.7584   25.7641  -79.2310 H         1 UNK         0.3105 
    102 H102      -74.2304   29.1801  -79.8895 H         1 UNK         0.0547 
    103 H103      -74.3054   28.3594  -82.2467 H         1 UNK         0.0837 
    104 H104      -75.5542   27.1984  -81.8207 H         1 UNK         0.0837 
    105 H105      -75.8808   28.9299  -81.7255 H         1 UNK         0.0837 
    106 H106      -76.6244   27.6369  -79.6143 H         1 UNK         0.3020 
    107 H107      -76.6474   27.5188  -76.0871 H         1 UNK         0.1245 
    108 H108      -78.1863   29.3951  -77.9439 H         1 UNK         0.0781 
    109 H109      -77.4546   29.7871  -76.4042 H         1 UNK         0.0781 
    110 H110      -81.1574   30.2413  -75.5836 H         1 UNK         0.0836 
    111 H111      -79.6758   30.9885  -76.1115 H         1 UNK         0.0836 
    112 H112      -78.6887   26.6740  -77.6927 H         1 UNK         0.3022 
    113 H113      -79.1384   24.6068  -78.1356 H         1 UNK         0.0747 
    114 H114      -78.4438   22.6489  -79.4816 H         1 UNK         0.0793 
    115 H115      -77.6592   24.0939  -80.0971 H         1 UNK         0.0793 
    116 H116      -76.7460   22.9535  -79.1196 H         1 UNK         0.0793 
    117 H117      -77.7320   22.3890  -76.9521 H         1 UNK         0.3047 
    118 H118      -78.8774   21.5456  -74.9733 H         1 UNK         0.0822 
    119 H119      -76.4370   22.2153  -74.8283 H         1 UNK         0.0807 
    120 H120      -77.0239   21.6416  -73.2794 H         1 UNK         0.0807 
    121 H121      -76.8337   23.3693  -73.5605 H         1 UNK         0.0807 
    122 H122      -79.8554   23.7817  -73.4624 H         1 UNK         0.2946 
    123 H123      -81.8036   22.8131  -71.9244 H         1 UNK         0.1144 
    124 H124      -81.6464   20.6583  -70.7115 H         1 UNK         0.0793 
    125 H125      -81.8957   21.9769  -69.5816 H         1 UNK         0.0793 
    126 H126      -80.2951   21.2568  -69.7582 H         1 UNK         0.0793 
    127 H127      -79.7856   23.6640  -69.9591 H         1 UNK         0.2896 
@<TRIPOS>BOND
     1    1    2 1    
     2    1   67 1    
     3    1   68 1    
     4    1   69 1    
     5    2    3 2    
     6    2    4 am   BACKBONE|DICT|INTERRES
     7    4    5 1    
     8    4   70 1    
     9    5    6 1    
    10    5   65 1    
    11    5   71 1    
    12    6    7 1    
    13    6   72 1    
    14    6   73 1    
    15    7    8 1    
    16    8    9 1    
    17    8   74 1    
    18    8   75 1    
    19    9   10 ar   
    20    9   14 ar   
    21   10   11 ar   
    22   10   76 1    
    23   11   12 ar   
    24   11   48 1    
    25   12   13 ar   
    26   12   77 1    
    27   13   14 ar   
    28   13   15 1    
    29   14   78 1    
    30   15   16 1    
    31   15   79 1    
    32   15   80 1    
    33   16   17 1    
    34   17   18 1    
    35   17   81 1    
    36   17   82 1    
    37   18   19 1    
    38   18   22 1    
    39   18   83 1    
    40   19   20 am   BACKBONE|DICT|INTERRES
    41   19   21 2    
    42   20   84 1    
    43   20   85 1    
    44   22   23 am   BACKBONE|DICT|INTERRES
    45   22   86 1    
    46   23   24 2    
    47   23   25 1    
    48   25   26 1    
    49   25   27 1    
    50   25   87 1    
    51   26   88 1    
    52   26   89 1    
    53   26   90 1    
    54   27   28 am   BACKBONE|DICT|INTERRES
    55   27   91 1    
    56   28   29 2    
    57   28   30 1    
    58   30   31 1    
    59   30   32 1    
    60   30   92 1    
    61   31   93 1    
    62   31   94 1    
    63   31   95 1    
    64   32   33 am   BACKBONE|DICT|INTERRES
    65   32   96 1    
    66   33   34 2    
    67   33   35 1    
    68   35   36 1    
    69   35   37 1    
    70   35   97 1    
    71   36   98 1    
    72   36   99 1    
    73   36  100 1    
    74   37   38 am   BACKBONE|DICT|INTERRES
    75   37  101 1    
    76   38   39 2    
    77   38   40 1    
    78   40   41 1    
    79   40   42 1    
    80   40  102 1    
    81   41  103 1    
    82   41  104 1    
    83   41  105 1    
    84   42   43 am   BACKBONE|DICT|INTERRES
    85   42  106 1    
    86   43   44 2    
    87   43   45 1    
    88   45   46 1    
    89   45   49 1    
    90   45  107 1    
    91   46   47 1    
    92   46  108 1    
    93   46  109 1    
    94   47   48 1    
    95   48  110 1    
    96   48  111 1    
    97   49   50 am   BACKBONE|DICT|INTERRES
    98   49  112 1    
    99   50   51 2    
   100   50   52 1    
   101   52   53 1    
   102   52   54 1    
   103   52  113 1    
   104   53  114 1    
   105   53  115 1    
   106   53  116 1    
   107   54   55 am   BACKBONE|DICT|INTERRES
   108   54  117 1    
   109   55   56 2    
   110   55   57 1    
   111   57   58 1    
   112   57   59 1    
   113   57  118 1    
   114   58  119 1    
   115   58  120 1    
   116   58  121 1    
   117   59   60 am   BACKBONE|DICT|INTERRES
   118   59  122 1    
   119   60   61 2    
   120   60   62 1    
   121   62   63 1    
   122   62   64 1    
   123   62  123 1    
   124   63  124 1    
   125   63  125 1    
   126   63  126 1    
   127   64   65 am   BACKBONE|DICT|INTERRES
   128   64  127 1    
   129   65   66 2    
@<TRIPOS>SUBSTRUCTURE
     1 UNK         1 GROUP             0       ****    0 ROOT    
