@<TRIPOS>MOLECULE
3R135
127   129    1
SMALL
USER_CHARGES


@<TRIPOS>ATOM
      1 CA        -84.1352   24.7838  -73.1423 C.3       0 UNK        -0.1998 
      2 C         -83.3274   25.8842  -73.8134 C.2       0 UNK         0.4909 
      3 O         -83.1787   25.8766  -75.0363 O.2       0 UNK        -0.5240 
      4 N         -82.8094   26.8345  -73.0245 N.am      1 UNK        -0.4739 
      5 CA        -81.9398   27.9223  -73.4849 C.3       1 UNK         0.0864 
      6 C6        -81.8376   29.0764  -72.4510 C.3       11 UNK        -0.0881 
      7 S7        -81.4332   28.5580  -70.7458 S.3       11 UNK        -0.2682 
      8 C8        -79.8727   29.4530  -70.4169 C.3       11 UNK         0.0289 
      9 C9        -78.6242   28.7918  -70.9991 C.ar      11 UNK        -0.0687 
     10 C10       -78.4791   27.4011  -71.0096 C.ar      11 UNK        -0.0823 
     11 C11       -77.3198   26.7946  -71.5004 C.ar      11 UNK        -0.0830 
     12 C12       -76.2732   27.6062  -71.9596 C.ar      11 UNK        -0.1021 
     13 C13       -76.3989   28.9980  -71.9542 C.ar      11 UNK        -0.0753 
     14 C14       -77.5768   29.5840  -71.4790 C.ar      11 UNK        -0.0933 
     15 C15       -75.2580   29.8709  -72.4533 C.3       11 UNK         0.0166 
     16 S16       -75.3575   30.1082  -74.2531 S.3       11 UNK        -0.2615 
     17 C17       -74.3439   31.6095  -74.4813 C.3       11 UNK        -0.0865 
     18 CA        -73.0222   31.3500  -75.2602 C.3       10 UNK         0.0862 
     19 C         -72.2904   32.6706  -75.6529 C.2       10 UNK         0.5551 
     20 N         -70.9645   32.6981  -75.7173 N.am      10 UNK        -0.7319 
     21 O         -72.9309   33.6810  -75.9345 O.2       10 UNK        -0.5018 
     22 N         -72.1551   30.3345  -74.6340 N.am      10 UNK        -0.4509 
     23 C         -71.5939   30.4039  -73.4163 C.2       10 UNK         0.4899 
     24 O         -71.7707   31.3433  -72.6398 O.2       10 UNK        -0.4839 
     25 CA        -70.6347   29.2675  -72.9963 C.3       9 UNK         0.0222 
     26 CB        -70.8263   28.8541  -71.5206 C.3       9 UNK        -0.1966 
     27 N         -70.6479   28.1048  -73.8956 N.am      9 UNK        -0.4218 
     28 C         -71.6420   27.2235  -74.0709 C.2       9 UNK         0.5020 
     29 O         -72.6746   27.1846  -73.3992 O.2       9 UNK        -0.5274 
     30 CA        -71.4666   26.2426  -75.2420 C.3       8 UNK         0.0270 
     31 CB        -71.1809   24.8207  -74.7345 C.3       8 UNK        -0.1976 
     32 N         -72.6593   26.2560  -76.0946 N.am      8 UNK        -0.4313 
     33 C         -73.0497   27.3309  -76.7999 C.2       8 UNK         0.5041 
     34 O         -72.3613   28.3508  -76.8909 O.2       8 UNK        -0.5577 
     35 CA        -74.4370   27.3076  -77.4740 C.3       7 UNK         0.0284 
     36 CB        -74.4611   28.0706  -78.8147 C.3       7 UNK        -0.1958 
     37 N         -75.0374   25.9770  -77.6087 N.am      7 UNK        -0.4454 
     38 C         -74.6076   24.9403  -78.3438 C.2       7 UNK         0.5089 
     39 O         -73.6296   24.9827  -79.0916 O.2       7 UNK        -0.5125 
     40 CA        -75.3978   23.6226  -78.1700 C.3       6 UNK         0.0408 
     41 CB        -74.6251   22.3879  -78.6783 C.3       6 UNK        -0.1791 
     42 N         -75.8557   23.4170  -76.7875 N.am      6 UNK        -0.4762 
     43 C         -75.0887   23.4004  -75.6833 C.2       6 UNK         0.5007 
     44 O         -73.8597   23.4313  -75.7246 O.2       6 UNK        -0.5032 
     45 CA        -75.7835   23.4232  -74.3058 C.3       5 UNK         0.0783 
     46 C46       -75.3161   24.6581  -73.4921 C.3       11 UNK        -0.0857 
     47 S47       -75.6460   24.4855  -71.7078 S.3       11 UNK        -0.2512 
     48 C48       -77.2856   25.2662  -71.5330 C.3       11 UNK         0.0225 
     49 N         -77.2397   23.4362  -74.4586 N.am      5 UNK        -0.4615 
     50 C         -78.0611   22.4025  -74.2449 C.2       4 UNK         0.5053 
     51 O         -77.6858   21.2988  -73.8501 O.2       4 UNK        -0.5105 
     52 CA        -79.5579   22.6317  -74.5345 C.3       4 UNK         0.0263 
     53 CB        -80.3381   22.8564  -73.2292 C.3       4 UNK        -0.1981 
     54 N         -79.8078   23.7512  -75.4505 N.am      4 UNK        -0.4224 
     55 C         -79.4956   23.7363  -76.7561 C.2       3 UNK         0.4895 
     56 O         -78.9990   22.7645  -77.3250 O.2       3 UNK        -0.5091 
     57 CA        -79.7124   25.0304  -77.5590 C.3       3 UNK         0.0250 
     58 CB        -81.0951   25.0202  -78.2289 C.3       3 UNK        -0.1996 
     59 N         -79.5662   26.2553  -76.7700 N.am      3 UNK        -0.4254 
     60 C         -78.4589   26.6362  -76.1163 C.2       2 UNK         0.5004 
     61 O         -77.4136   25.9859  -76.1015 O.2       2 UNK        -0.5226 
     62 CA        -78.5459   27.9458  -75.3160 C.3       2 UNK         0.0269 
     63 CB        -78.1344   29.1291  -76.2057 C.3       2 UNK        -0.1926 
     64 N         -79.8748   28.2180  -74.7569 N.am      2 UNK        -0.4687 
     65 C         -80.5571   27.4066  -73.9358 C.2       1 UNK         0.5165 
     66 O         -80.1473   26.3017  -73.5682 O.2       1 UNK        -0.5079 
     67 H67       -85.1811   24.8525  -73.4401 H         1 UNK         0.0900 
     68 H68       -83.7600   23.8058  -73.4416 H         1 UNK         0.0900 
     69 H69       -84.0848   24.8475  -72.0555 H         1 UNK         0.0900 
     70 H70       -82.9284   26.7789  -72.0228 H         1 UNK         0.2959 
     71 H71       -82.4119   28.3376  -74.3785 H         1 UNK         0.1079 
     72 H72       -82.7999   29.5886  -72.4034 H         1 UNK         0.0837 
     73 H73       -81.1301   29.8374  -72.7854 H         1 UNK         0.0837 
     74 H74       -79.7417   29.5175  -69.3361 H         1 UNK         0.0685 
     75 H75       -79.9690   30.4800  -70.7725 H         1 UNK         0.0685 
     76 H76       -79.2837   26.7781  -70.6441 H         1 UNK         0.1434 
     77 H77       -75.3558   27.1736  -72.3321 H         1 UNK         0.1329 
     78 H78       -77.6701   30.6614  -71.4697 H         1 UNK         0.1335 
     79 H79       -75.2879   30.8363  -71.9462 H         1 UNK         0.0680 
     80 H80       -74.2967   29.4188  -72.2038 H         1 UNK         0.0680 
     81 H81       -74.9668   32.3212  -75.0259 H         1 UNK         0.1032 
     82 H82       -74.1368   32.0821  -73.5207 H         1 UNK         0.1032 
     83 H83       -73.3075   30.9140  -76.2182 H         1 UNK         0.0461 
     84 H84       -70.4989   33.5519  -75.9820 H         1 UNK         0.3453 
     85 H85       -70.4278   31.8723  -75.5071 H         1 UNK         0.3453 
     86 H86       -71.9710   29.5271  -75.2197 H         1 UNK         0.2984 
     87 H87       -69.6315   29.6870  -73.0828 H         1 UNK         0.0554 
     88 H88       -70.6245   29.6914  -70.8515 H         1 UNK         0.0847 
     89 H89       -70.1484   28.0479  -71.2410 H         1 UNK         0.0847 
     90 H90       -71.8452   28.5227  -71.3189 H         1 UNK         0.0847 
     91 H91       -69.8506   28.0377  -74.5142 H         1 UNK         0.3141 
     92 H92       -70.6194   26.5571  -75.8554 H         1 UNK         0.0743 
     93 H93       -71.9654   24.4606  -74.0691 H         1 UNK         0.0784 
     94 H94       -71.0903   24.1140  -75.5597 H         1 UNK         0.0784 
     95 H95       -70.2450   24.7895  -74.1754 H         1 UNK         0.0784 
     96 H96       -73.2548   25.4369  -76.0572 H         1 UNK         0.3213 
     97 H97       -75.0874   27.8459  -76.7840 H         1 UNK         0.0855 
     98 H98       -73.7762   27.6335  -79.5416 H         1 UNK         0.0814 
     99 H99       -74.1663   29.1118  -78.6778 H         1 UNK         0.0814 
    100 H100      -75.4598   28.0743  -79.2511 H         1 UNK         0.0814 
    101 H101      -75.8681   25.8295  -77.0349 H         1 UNK         0.3105 
    102 H102      -76.2983   23.7244  -78.7773 H         1 UNK         0.0547 
    103 H103      -75.2093   21.4762  -78.5546 H         1 UNK         0.0837 
    104 H104      -73.6798   22.2554  -78.1511 H         1 UNK         0.0837 
    105 H105      -74.3937   22.4815  -79.7399 H         1 UNK         0.0837 
    106 H106      -76.8592   23.3706  -76.6652 H         1 UNK         0.3020 
    107 H107      -75.4616   22.5166  -73.7883 H         1 UNK         0.1245 
    108 H108      -75.7736   25.5693  -73.8807 H         1 UNK         0.0781 
    109 H109      -74.2395   24.8108  -73.5775 H         1 UNK         0.0781 
    110 H110      -77.7226   24.8858  -70.6085 H         1 UNK         0.0836 
    111 H111      -77.9389   24.9272  -72.3353 H         1 UNK         0.0836 
    112 H112      -77.6282   24.3052  -74.8060 H         1 UNK         0.3022 
    113 H113      -79.9388   21.7216  -75.0028 H         1 UNK         0.0747 
    114 H114      -81.4081   22.9380  -73.4178 H         1 UNK         0.0793 
    115 H115      -80.1940   22.0237  -72.5395 H         1 UNK         0.0793 
    116 H116      -80.0198   23.7632  -72.7151 H         1 UNK         0.0793 
    117 H117      -80.1723   24.6039  -75.0401 H         1 UNK         0.3047 
    118 H118      -78.9518   25.0561  -78.3424 H         1 UNK         0.0822 
    119 H119      -81.2268   25.8823  -78.8830 H         1 UNK         0.0807 
    120 H120      -81.9001   25.0303  -77.4924 H         1 UNK         0.0807 
    121 H121      -81.2257   24.1275  -78.8426 H         1 UNK         0.0807 
    122 H122      -80.3800   26.8493  -76.7034 H         1 UNK         0.2946 
    123 H123      -77.8433   27.8682  -74.4829 H         1 UNK         0.1144 
    124 H124      -78.1071   30.0600  -75.6390 H         1 UNK         0.0793 
    125 H125      -78.8200   29.2658  -77.0429 H         1 UNK         0.0793 
    126 H126      -77.1388   28.9799  -76.6235 H         1 UNK         0.0793 
    127 H127      -80.2847   29.1058  -75.0090 H         1 UNK         0.2896 
@<TRIPOS>BOND
     1    1    2 1    
     2    1   67 1    
     3    1   68 1    
     4    1   69 1    
     5    2    3 2    
     6    2    4 am   BACKBONE|DICT|INTERRES
     7    4    5 1    
     8    4   70 1    
     9    5    6 1    
    10    5   65 1    
    11    5   71 1    
    12    6    7 1    
    13    6   72 1    
    14    6   73 1    
    15    7    8 1    
    16    8    9 1    
    17    8   74 1    
    18    8   75 1    
    19    9   10 ar   
    20    9   14 ar   
    21   10   11 ar   
    22   10   76 1    
    23   11   12 ar   
    24   11   48 1    
    25   12   13 ar   
    26   12   77 1    
    27   13   14 ar   
    28   13   15 1    
    29   14   78 1    
    30   15   16 1    
    31   15   79 1    
    32   15   80 1    
    33   16   17 1    
    34   17   18 1    
    35   17   81 1    
    36   17   82 1    
    37   18   19 1    
    38   18   22 1    
    39   18   83 1    
    40   19   20 am   BACKBONE|DICT|INTERRES
    41   19   21 2    
    42   20   84 1    
    43   20   85 1    
    44   22   23 am   BACKBONE|DICT|INTERRES
    45   22   86 1    
    46   23   24 2    
    47   23   25 1    
    48   25   26 1    
    49   25   27 1    
    50   25   87 1    
    51   26   88 1    
    52   26   89 1    
    53   26   90 1    
    54   27   28 am   BACKBONE|DICT|INTERRES
    55   27   91 1    
    56   28   29 2    
    57   28   30 1    
    58   30   31 1    
    59   30   32 1    
    60   30   92 1    
    61   31   93 1    
    62   31   94 1    
    63   31   95 1    
    64   32   33 am   BACKBONE|DICT|INTERRES
    65   32   96 1    
    66   33   34 2    
    67   33   35 1    
    68   35   36 1    
    69   35   37 1    
    70   35   97 1    
    71   36   98 1    
    72   36   99 1    
    73   36  100 1    
    74   37   38 am   BACKBONE|DICT|INTERRES
    75   37  101 1    
    76   38   39 2    
    77   38   40 1    
    78   40   41 1    
    79   40   42 1    
    80   40  102 1    
    81   41  103 1    
    82   41  104 1    
    83   41  105 1    
    84   42   43 am   BACKBONE|DICT|INTERRES
    85   42  106 1    
    86   43   44 2    
    87   43   45 1    
    88   45   46 1    
    89   45   49 1    
    90   45  107 1    
    91   46   47 1    
    92   46  108 1    
    93   46  109 1    
    94   47   48 1    
    95   48  110 1    
    96   48  111 1    
    97   49   50 am   BACKBONE|DICT|INTERRES
    98   49  112 1    
    99   50   51 2    
   100   50   52 1    
   101   52   53 1    
   102   52   54 1    
   103   52  113 1    
   104   53  114 1    
   105   53  115 1    
   106   53  116 1    
   107   54   55 am   BACKBONE|DICT|INTERRES
   108   54  117 1    
   109   55   56 2    
   110   55   57 1    
   111   57   58 1    
   112   57   59 1    
   113   57  118 1    
   114   58  119 1    
   115   58  120 1    
   116   58  121 1    
   117   59   60 am   BACKBONE|DICT|INTERRES
   118   59  122 1    
   119   60   61 2    
   120   60   62 1    
   121   62   63 1    
   122   62   64 1    
   123   62  123 1    
   124   63  124 1    
   125   63  125 1    
   126   63  126 1    
   127   64   65 am   BACKBONE|DICT|INTERRES
   128   64  127 1    
   129   65   66 2    
@<TRIPOS>SUBSTRUCTURE
     1 UNK         1 GROUP             0       ****    0 ROOT    
