@<TRIPOS>MOLECULE
3R135
127   129    1
SMALL
USER_CHARGES


@<TRIPOS>ATOM
      1 CA        -83.9288   24.9733  -75.1782 C.3       0 UNK        -0.1998 
      2 C         -82.9246   26.0192  -74.7199 C.2       0 UNK         0.4909 
      3 O         -82.5270   26.8720  -75.5143 O.2       0 UNK        -0.5240 
      4 N         -82.5011   25.9508  -73.4492 N.am      1 UNK        -0.4739 
      5 CA        -81.5172   26.8407  -72.8167 C.3       1 UNK         0.0864 
      6 C6        -81.3446   26.5049  -71.3074 C.3       11 UNK        -0.0881 
      7 S7        -81.2039   27.9294  -70.1650 S.3       11 UNK        -0.2682 
      8 C8        -80.0879   29.1369  -70.9715 C.3       11 UNK         0.0289 
      9 C9        -78.6299   28.7124  -71.1686 C.ar      11 UNK        -0.0687 
     10 C10       -78.0986   27.5216  -70.6560 C.ar      11 UNK        -0.0823 
     11 C11       -76.7705   27.1641  -70.9052 C.ar      11 UNK        -0.0830 
     12 C12       -75.9492   28.0261  -71.6367 C.ar      11 UNK        -0.1021 
     13 C13       -76.4558   29.2296  -72.1338 C.ar      11 UNK        -0.0753 
     14 C14       -77.7940   29.5606  -71.9023 C.ar      11 UNK        -0.0933 
     15 C15       -75.5587   30.1741  -72.9177 C.3       11 UNK         0.0166 
     16 S16       -75.1892   29.5073  -74.5663 S.3       11 UNK        -0.2615 
     17 C17       -74.5140   30.9692  -75.4256 C.3       11 UNK        -0.0865 
     18 CA        -72.9667   31.0101  -75.3821 C.3       10 UNK         0.0862 
     19 C         -72.4093   32.0702  -76.3655 C.2       10 UNK         0.5551 
     20 N         -71.8782   31.6445  -77.5029 N.am      10 UNK        -0.7319 
     21 O         -72.4809   33.2711  -76.1145 O.2       10 UNK        -0.5018 
     22 N         -72.4868   31.2622  -74.0156 N.am      10 UNK        -0.4509 
     23 C         -71.2887   30.9751  -73.4877 C.2       10 UNK         0.4899 
     24 O         -70.9772   31.3940  -72.3730 O.2       10 UNK        -0.4839 
     25 CA        -70.2904   30.0822  -74.2655 C.3       9 UNK         0.0222 
     26 CB        -68.9169   29.9835  -73.5682 C.3       9 UNK        -0.1966 
     27 N         -70.8043   28.7341  -74.5377 N.am      9 UNK        -0.4218 
     28 C         -71.3309   27.8499  -73.6801 C.2       9 UNK         0.5020 
     29 O         -71.4374   28.0397  -72.4671 O.2       9 UNK        -0.5274 
     30 CA        -71.8179   26.5205  -74.2973 C.3       8 UNK         0.0270 
     31 CB        -72.2856   25.5208  -73.2236 C.3       8 UNK        -0.1976 
     32 N         -72.8914   26.6948  -75.2842 N.am      8 UNK        -0.4313 
     33 C         -72.7586   27.2140  -76.5127 C.2       8 UNK         0.5041 
     34 O         -71.6903   27.6469  -76.9532 O.2       8 UNK        -0.5577 
     35 CA        -74.0325   27.2745  -77.3797 C.3       7 UNK         0.0284 
     36 CB        -73.7456   27.6841  -78.8399 C.3       7 UNK        -0.1958 
     37 N         -74.8283   26.0423  -77.3329 N.am      7 UNK        -0.4454 
     38 C         -74.4456   24.8106  -77.6999 C.2       7 UNK         0.5089 
     39 O         -73.3181   24.5243  -78.1069 O.2       7 UNK        -0.5125 
     40 CA        -75.5325   23.7247  -77.5972 C.3       6 UNK         0.0408 
     41 CB        -75.0364   22.3209  -78.0042 C.3       6 UNK        -0.1791 
     42 N         -76.1724   23.6959  -76.2780 N.am      6 UNK        -0.4762 
     43 C         -75.6089   23.4070  -75.0945 C.2       6 UNK         0.5007 
     44 O         -74.4194   23.1246  -74.9555 O.2       6 UNK        -0.5032 
     45 CA        -76.5222   23.4206  -73.8476 C.3       5 UNK         0.0783 
     46 C46       -76.1657   24.5993  -72.9114 C.3       11 UNK        -0.0857 
     47 S47       -76.9575   24.4273  -71.2790 S.3       11 UNK        -0.2512 
     48 C48       -76.2336   25.8395  -70.3850 C.3       11 UNK         0.0225 
     49 N         -77.9478   23.4194  -74.1955 N.am      5 UNK        -0.4615 
     50 C         -78.6217   22.3576  -74.6567 C.2       4 UNK         0.5053 
     51 O         -78.1366   21.2321  -74.7706 O.2       4 UNK        -0.5105 
     52 CA        -80.0672   22.6092  -75.1087 C.3       4 UNK         0.0263 
     53 CB        -81.0256   22.6270  -73.9065 C.3       4 UNK        -0.1981 
     54 N         -80.1762   23.8629  -75.8601 N.am      4 UNK        -0.4224 
     55 C         -79.8298   24.0030  -77.1489 C.2       3 UNK         0.4895 
     56 O         -79.4328   23.0746  -77.8523 O.2       3 UNK        -0.5091 
     57 CA        -79.9265   25.4097  -77.7647 C.3       3 UNK         0.0250 
     58 CB        -81.2599   25.5817  -78.5095 C.3       3 UNK        -0.1996 
     59 N         -79.7793   26.4768  -76.7730 N.am      3 UNK        -0.4254 
     60 C         -78.6025   26.8689  -76.2619 C.2       2 UNK         0.5004 
     61 O         -77.5173   26.4041  -76.6097 O.2       2 UNK        -0.5226 
     62 CA        -78.6389   27.9293  -75.1477 C.3       2 UNK         0.0269 
     63 CB        -78.5404   29.3391  -75.7507 C.3       2 UNK        -0.1926 
     64 N         -79.8295   27.8493  -74.2963 N.am      2 UNK        -0.4687 
     65 C         -80.1764   26.7736  -73.5766 C.2       1 UNK         0.5165 
     66 O         -79.5249   25.7275  -73.5602 O.2       1 UNK        -0.5079 
     67 H67       -84.8034   25.4583  -75.6107 H         1 UNK         0.0900 
     68 H68       -83.4829   24.3331  -75.9389 H         1 UNK         0.0900 
     69 H69       -84.2646   24.3418  -74.3559 H         1 UNK         0.0900 
     70 H70       -82.8607   25.2160  -72.8571 H         1 UNK         0.2959 
     71 H71       -81.9274   27.8480  -72.9079 H         1 UNK         0.1079 
     72 H72       -80.5122   25.8203  -71.1321 H         1 UNK         0.0837 
     73 H73       -82.2178   25.9553  -70.9524 H         1 UNK         0.0837 
     74 H74       -80.0871   30.0357  -70.3534 H         1 UNK         0.0685 
     75 H75       -80.5143   29.4392  -71.9277 H         1 UNK         0.0685 
     76 H76       -78.7116   26.8478  -70.0766 H         1 UNK         0.1434 
     77 H77       -74.9178   27.7622  -71.8283 H         1 UNK         0.1329 
     78 H78       -78.1898   30.4862  -72.2978 H         1 UNK         0.1335 
     79 H79       -74.6275   30.3283  -72.3712 H         1 UNK         0.0680 
     80 H80       -76.0315   31.1524  -73.0155 H         1 UNK         0.0680 
     81 H81       -74.9462   31.8847  -75.0176 H         1 UNK         0.1032 
     82 H82       -74.8614   30.9138  -76.4594 H         1 UNK         0.1032 
     83 H83       -72.6224   30.0350  -75.7166 H         1 UNK         0.0461 
     84 H84       -71.5221   32.3226  -78.1588 H         1 UNK         0.3453 
     85 H85       -71.8184   30.6619  -77.7207 H         1 UNK         0.3453 
     86 H86       -73.0946   31.8516  -73.4685 H         1 UNK         0.2984 
     87 H87       -70.1243   30.5561  -75.2332 H         1 UNK         0.0554 
     88 H88       -68.4834   30.9726  -73.4148 H         1 UNK         0.0847 
     89 H89       -68.2087   29.4101  -74.1662 H         1 UNK         0.0847 
     90 H90       -68.9927   29.5054  -72.5908 H         1 UNK         0.0847 
     91 H91       -70.8448   28.4629  -75.5196 H         1 UNK         0.3141 
     92 H92       -70.9621   26.0750  -74.8090 H         1 UNK         0.0743 
     93 H93       -71.4868   25.3127  -72.5105 H         1 UNK         0.0784 
     94 H94       -72.5756   24.5675  -73.6645 H         1 UNK         0.0784 
     95 H95       -73.1324   25.9085  -72.6568 H         1 UNK         0.0784 
     96 H96       -73.8112   26.3895  -75.0030 H         1 UNK         0.3213 
     97 H97       -74.6625   28.0525  -76.9508 H         1 UNK         0.0855 
     98 H98       -73.0798   26.9769  -79.3355 H         1 UNK         0.0814 
     99 H99       -73.2695   28.6642  -78.8847 H         1 UNK         0.0814 
    100 H100      -74.6647   27.7455  -79.4224 H         1 UNK         0.0814 
    101 H101      -75.7943   26.1553  -77.0201 H         1 UNK         0.3105 
    102 H102      -76.3144   24.0092  -78.3033 H         1 UNK         0.0547 
    103 H103      -75.8388   21.5855  -77.9462 H         1 UNK         0.0837 
    104 H104      -74.2186   21.9770  -77.3704 H         1 UNK         0.0837 
    105 H105      -74.6706   22.3210  -79.0316 H         1 UNK         0.0837 
    106 H106      -77.1460   23.9663  -76.2662 H         1 UNK         0.3020 
    107 H107      -76.3075   22.4917  -73.3138 H         1 UNK         0.1245 
    108 H108      -76.4595   25.5520  -73.3572 H         1 UNK         0.0781 
    109 H109      -75.0892   24.6463  -72.7461 H         1 UNK         0.0781 
    110 H110      -75.1455   25.7996  -70.4573 H         1 UNK         0.0836 
    111 H111      -76.4729   25.7469  -69.3247 H         1 UNK         0.0836 
    112 H112      -78.4482   24.2933  -74.0455 H         1 UNK         0.3022 
    113 H113      -80.3632   21.7835  -75.7598 H         1 UNK         0.0747 
    114 H114      -82.0595   22.7536  -74.2260 H         1 UNK         0.0793 
    115 H115      -80.9721   21.6867  -73.3562 H         1 UNK         0.0793 
    116 H116      -80.7880   23.4254  -73.2033 H         1 UNK         0.0793 
    117 H117      -80.4093   24.6903  -75.3281 H         1 UNK         0.3047 
    118 H118      -79.1196   25.5031  -78.4953 H         1 UNK         0.0822 
    119 H119      -81.3200   26.5561  -78.9946 H         1 UNK         0.0807 
    120 H120      -82.1152   25.4877  -77.8404 H         1 UNK         0.0807 
    121 H121      -81.3715   24.8257  -79.2880 H         1 UNK         0.0807 
    122 H122      -80.6341   26.8873  -76.4096 H         1 UNK         0.2946 
    123 H123      -77.7665   27.7596  -74.5120 H         1 UNK         0.1144 
    124 H124      -78.4334   30.0953  -74.9729 H         1 UNK         0.0793 
    125 H125      -79.4189   29.5878  -76.3471 H         1 UNK         0.0793 
    126 H126      -77.6696   29.4247  -76.4023 H         1 UNK         0.0793 
    127 H127      -80.4466   28.6482  -74.3117 H         1 UNK         0.2896 
@<TRIPOS>BOND
     1    1    2 1    
     2    1   67 1    
     3    1   68 1    
     4    1   69 1    
     5    2    3 2    
     6    2    4 am   BACKBONE|DICT|INTERRES
     7    4    5 1    
     8    4   70 1    
     9    5    6 1    
    10    5   65 1    
    11    5   71 1    
    12    6    7 1    
    13    6   72 1    
    14    6   73 1    
    15    7    8 1    
    16    8    9 1    
    17    8   74 1    
    18    8   75 1    
    19    9   10 ar   
    20    9   14 ar   
    21   10   11 ar   
    22   10   76 1    
    23   11   12 ar   
    24   11   48 1    
    25   12   13 ar   
    26   12   77 1    
    27   13   14 ar   
    28   13   15 1    
    29   14   78 1    
    30   15   16 1    
    31   15   79 1    
    32   15   80 1    
    33   16   17 1    
    34   17   18 1    
    35   17   81 1    
    36   17   82 1    
    37   18   19 1    
    38   18   22 1    
    39   18   83 1    
    40   19   20 am   BACKBONE|DICT|INTERRES
    41   19   21 2    
    42   20   84 1    
    43   20   85 1    
    44   22   23 am   BACKBONE|DICT|INTERRES
    45   22   86 1    
    46   23   24 2    
    47   23   25 1    
    48   25   26 1    
    49   25   27 1    
    50   25   87 1    
    51   26   88 1    
    52   26   89 1    
    53   26   90 1    
    54   27   28 am   BACKBONE|DICT|INTERRES
    55   27   91 1    
    56   28   29 2    
    57   28   30 1    
    58   30   31 1    
    59   30   32 1    
    60   30   92 1    
    61   31   93 1    
    62   31   94 1    
    63   31   95 1    
    64   32   33 am   BACKBONE|DICT|INTERRES
    65   32   96 1    
    66   33   34 2    
    67   33   35 1    
    68   35   36 1    
    69   35   37 1    
    70   35   97 1    
    71   36   98 1    
    72   36   99 1    
    73   36  100 1    
    74   37   38 am   BACKBONE|DICT|INTERRES
    75   37  101 1    
    76   38   39 2    
    77   38   40 1    
    78   40   41 1    
    79   40   42 1    
    80   40  102 1    
    81   41  103 1    
    82   41  104 1    
    83   41  105 1    
    84   42   43 am   BACKBONE|DICT|INTERRES
    85   42  106 1    
    86   43   44 2    
    87   43   45 1    
    88   45   46 1    
    89   45   49 1    
    90   45  107 1    
    91   46   47 1    
    92   46  108 1    
    93   46  109 1    
    94   47   48 1    
    95   48  110 1    
    96   48  111 1    
    97   49   50 am   BACKBONE|DICT|INTERRES
    98   49  112 1    
    99   50   51 2    
   100   50   52 1    
   101   52   53 1    
   102   52   54 1    
   103   52  113 1    
   104   53  114 1    
   105   53  115 1    
   106   53  116 1    
   107   54   55 am   BACKBONE|DICT|INTERRES
   108   54  117 1    
   109   55   56 2    
   110   55   57 1    
   111   57   58 1    
   112   57   59 1    
   113   57  118 1    
   114   58  119 1    
   115   58  120 1    
   116   58  121 1    
   117   59   60 am   BACKBONE|DICT|INTERRES
   118   59  122 1    
   119   60   61 2    
   120   60   62 1    
   121   62   63 1    
   122   62   64 1    
   123   62  123 1    
   124   63  124 1    
   125   63  125 1    
   126   63  126 1    
   127   64   65 am   BACKBONE|DICT|INTERRES
   128   64  127 1    
   129   65   66 2    
@<TRIPOS>SUBSTRUCTURE
     1 UNK         1 GROUP             0       ****    0 ROOT    
