@<TRIPOS>MOLECULE
3R135
127   129    1
SMALL
USER_CHARGES


@<TRIPOS>ATOM
      1 CA        -76.2051   22.1480  -73.2138 C.3       0 UNK        -0.1998 
      2 C         -77.4160   23.0632  -73.2945 C.2       0 UNK         0.4909 
      3 O         -77.8618   23.3799  -74.3964 O.2       0 UNK        -0.5240 
      4 N         -77.9581   23.4775  -72.1390 N.am      1 UNK        -0.4739 
      5 CA        -79.0694   24.4352  -71.9809 C.3       1 UNK         0.0864 
      6 C6        -78.6360   25.9039  -72.2443 C.3       11 UNK        -0.0881 
      7 S7        -77.3735   26.4330  -71.0324 S.3       11 UNK        -0.2682 
      8 C8        -78.1243   27.9072  -70.2777 C.3       11 UNK         0.0289 
      9 C9        -77.9042   29.1473  -71.1312 C.ar      11 UNK        -0.0687 
     10 C10       -78.9014   29.5900  -72.0049 C.ar      11 UNK        -0.0823 
     11 C11       -78.7049   30.7373  -72.7784 C.ar      11 UNK        -0.0830 
     12 C12       -77.5131   31.4554  -72.6558 C.ar      11 UNK        -0.1021 
     13 C13       -76.5002   31.0160  -71.7991 C.ar      11 UNK        -0.0753 
     14 C14       -76.7030   29.8599  -71.0378 C.ar      11 UNK        -0.0933 
     15 C15       -75.1933   31.7935  -71.6985 C.3       11 UNK         0.0166 
     16 S16       -74.3880   31.9508  -73.3228 S.3       11 UNK        -0.2615 
     17 C17       -72.8166   32.7783  -72.8933 C.3       11 UNK        -0.0865 
     18 CA        -71.5882   31.8539  -72.6022 C.3       10 UNK         0.0862 
     19 C         -71.3965   31.4731  -71.0996 C.2       10 UNK         0.5551 
     20 N         -70.6269   30.4393  -70.7836 N.am      10 UNK        -0.7319 
     21 O         -71.9062   32.1450  -70.2058 O.2       10 UNK        -0.5018 
     22 N         -71.4084   30.7780  -73.6017 N.am      10 UNK        -0.4509 
     23 C         -71.9913   29.5688  -73.6059 C.2       10 UNK         0.4899 
     24 O         -72.6856   29.1329  -72.6851 O.2       10 UNK        -0.4839 
     25 CA        -71.7840   28.7381  -74.8873 C.3       9 UNK         0.0222 
     26 CB        -70.3048   28.3579  -75.1139 C.3       9 UNK        -0.1966 
     27 N         -72.6708   27.5694  -74.9338 N.am      9 UNK        -0.4218 
     28 C         -72.5999   26.4402  -74.2106 C.2       9 UNK         0.5020 
     29 O         -71.6601   26.1283  -73.4769 O.2       9 UNK        -0.5274 
     30 CA        -73.8053   25.4920  -74.3190 C.3       8 UNK         0.0270 
     31 CB        -74.9361   25.9876  -73.4097 C.3       8 UNK        -0.1976 
     32 N         -74.3117   25.3609  -75.6850 N.am      8 UNK        -0.4313 
     33 C         -73.6403   24.7922  -76.6956 C.2       8 UNK         0.5041 
     34 O         -72.5490   24.2344  -76.5731 O.2       8 UNK        -0.5577 
     35 CA        -74.2869   24.8849  -78.0851 C.3       7 UNK         0.0284 
     36 CB        -75.3365   23.7768  -78.2791 C.3       7 UNK        -0.1958 
     37 N         -74.8858   26.2046  -78.3078 N.am      7 UNK        -0.4454 
     38 C         -74.1784   27.3103  -78.5860 C.2       7 UNK         0.5089 
     39 O         -72.9603   27.3154  -78.7635 O.2       7 UNK        -0.5125 
     40 CA        -74.9485   28.6401  -78.6859 C.3       6 UNK         0.0408 
     41 CB        -75.3098   28.9381  -80.1497 C.3       6 UNK        -0.1791 
     42 N         -76.1660   28.6801  -77.8722 N.am      6 UNK        -0.4762 
     43 C         -76.1935   28.7341  -76.5314 C.2       6 UNK         0.5007 
     44 O         -75.1829   28.7559  -75.8297 O.2       6 UNK        -0.5032 
     45 CA        -77.5930   28.6845  -75.8791 C.3       5 UNK         0.0783 
     46 C46       -78.2611   30.0840  -75.9102 C.3       11 UNK        -0.0857 
     47 S47       -79.9371   30.0718  -75.1760 S.3       11 UNK        -0.2512 
     48 C48       -79.7732   31.2007  -73.7561 C.3       11 UNK         0.0225 
     49 N         -78.4457   27.6709  -76.5145 N.am      5 UNK        -0.4615 
     50 C         -78.1683   26.3674  -76.6162 C.2       4 UNK         0.5053 
     51 O         -77.1478   25.8432  -76.1668 O.2       4 UNK        -0.5105 
     52 CA        -79.1424   25.5459  -77.4621 C.3       4 UNK         0.0263 
     53 CB        -78.7332   25.6487  -78.9489 C.3       4 UNK        -0.1981 
     54 N         -79.1470   24.1597  -76.9961 N.am      4 UNK        -0.4224 
     55 C         -79.9344   23.1827  -77.4667 C.2       3 UNK         0.4895 
     56 O         -80.7523   23.3279  -78.3761 O.2       3 UNK        -0.5091 
     57 CA        -79.8214   21.8153  -76.7828 C.3       3 UNK         0.0250 
     58 CB        -78.4058   21.2210  -76.9075 C.3       3 UNK        -0.1996 
     59 N         -80.2131   21.9270  -75.3783 N.am      3 UNK        -0.4254 
     60 C         -81.4818   21.8712  -74.9447 C.2       2 UNK         0.5004 
     61 O         -82.4434   21.6463  -75.6811 O.2       2 UNK        -0.5226 
     62 CA        -81.7428   22.0764  -73.4406 C.3       2 UNK         0.0269 
     63 CB        -82.0666   20.7332  -72.7650 C.3       2 UNK        -0.1926 
     64 N         -80.6285   22.7050  -72.7293 N.am      2 UNK        -0.4687 
     65 C         -80.3343   24.0126  -72.7650 C.2       1 UNK         0.5165 
     66 O         -81.0021   24.8432  -73.3835 O.2       1 UNK        -0.5079 
     67 H67       -75.3745   22.5831  -73.7691 H         1 UNK         0.0900 
     68 H68       -76.4383   21.1789  -73.6539 H         1 UNK         0.0900 
     69 H69       -75.8807   21.9892  -72.1857 H         1 UNK         0.0900 
     70 H70       -77.5430   23.1680  -71.2711 H         1 UNK         0.2959 
     71 H71       -79.3704   24.3748  -70.9335 H         1 UNK         0.1079 
     72 H72       -79.4908   26.5787  -72.1823 H         1 UNK         0.0837 
     73 H73       -78.2339   26.0151  -73.2531 H         1 UNK         0.0837 
     74 H74       -79.1871   27.7376  -70.0984 H         1 UNK         0.0685 
     75 H75       -77.6746   28.0613  -69.2957 H         1 UNK         0.0685 
     76 H76       -79.8274   29.0386  -72.0932 H         1 UNK         0.1434 
     77 H77       -77.3578   32.3472  -73.2479 H         1 UNK         0.1329 
     78 H78       -75.9260   29.5109  -70.3713 H         1 UNK         0.1335 
     79 H79       -75.3921   32.7857  -71.2914 H         1 UNK         0.0680 
     80 H80       -74.5058   31.2994  -71.0104 H         1 UNK         0.0680 
     81 H81       -72.9894   33.4890  -72.0833 H         1 UNK         0.1032 
     82 H82       -72.5694   33.4045  -73.7516 H         1 UNK         0.1032 
     83 H83       -70.7200   32.4921  -72.7722 H         1 UNK         0.0461 
     84 H84       -70.4912   30.2005  -69.8142 H         1 UNK         0.3453 
     85 H85       -70.2178   29.8717  -71.5083 H         1 UNK         0.3453 
     86 H86       -70.8403   31.0298  -74.3973 H         1 UNK         0.2984 
     87 H87       -72.0996   29.3651  -75.7227 H         1 UNK         0.0554 
     88 H88       -70.1925   27.7031  -75.9782 H         1 UNK         0.0847 
     89 H89       -69.8755   27.8498  -74.2500 H         1 UNK         0.0847 
     90 H90       -69.6946   29.2419  -75.3002 H         1 UNK         0.0847 
     91 H91       -73.5504   27.7450  -75.4120 H         1 UNK         0.3141 
     92 H92       -73.4948   24.5020  -73.9787 H         1 UNK         0.0743 
     93 H93       -74.6179   26.0012  -72.3667 H         1 UNK         0.0784 
     94 H94       -75.8107   25.3454  -73.4781 H         1 UNK         0.0784 
     95 H95       -75.2535   26.9997  -73.6646 H         1 UNK         0.0784 
     96 H96       -75.2479   25.7172  -75.8639 H         1 UNK         0.3213 
     97 H97       -73.5007   24.7325  -78.8282 H         1 UNK         0.0855 
     98 H98       -76.1581   23.8575  -77.5676 H         1 UNK         0.0814 
     99 H99       -74.8881   22.7924  -78.1395 H         1 UNK         0.0814 
    100 H100      -75.7551   23.7981  -79.2850 H         1 UNK         0.0814 
    101 H101      -75.8736   26.2971  -78.1224 H         1 UNK         0.3105 
    102 H102      -74.2827   29.4309  -78.3332 H         1 UNK         0.0547 
    103 H103      -74.4176   28.9444  -80.7776 H         1 UNK         0.0837 
    104 H104      -75.9903   28.1908  -80.5598 H         1 UNK         0.0837 
    105 H105      -75.7809   29.9158  -80.2522 H         1 UNK         0.0837 
    106 H106      -77.0455   28.6572  -78.3678 H         1 UNK         0.3020 
    107 H107      -77.4527   28.3907  -74.8356 H         1 UNK         0.1245 
    108 H108      -77.6358   30.8166  -75.3979 H         1 UNK         0.0781 
    109 H109      -78.3563   30.4423  -76.9370 H         1 UNK         0.0781 
    110 H110      -80.7322   31.2630  -73.2398 H         1 UNK         0.0836 
    111 H111      -79.5587   32.2057  -74.1231 H         1 UNK         0.0836 
    112 H112      -79.3100   28.0175  -76.9054 H         1 UNK         0.3022 
    113 H113      -80.1477   25.9508  -77.3294 H         1 UNK         0.0747 
    114 H114      -79.4804   25.2085  -79.6082 H         1 UNK         0.0793 
    115 H115      -78.6222   26.6881  -79.2602 H         1 UNK         0.0793 
    116 H116      -77.7858   25.1473  -79.1425 H         1 UNK         0.0793 
    117 H117      -78.5296   23.9718  -76.2067 H         1 UNK         0.3047 
    118 H118      -80.5044   21.1301  -77.2901 H         1 UNK         0.0822 
    119 H119      -78.3505   20.2358  -76.4444 H         1 UNK         0.0807 
    120 H120      -77.6436   21.8476  -76.4459 H         1 UNK         0.0807 
    121 H121      -78.1298   21.1011  -77.9559 H         1 UNK         0.0807 
    122 H122      -79.4856   22.2127  -74.7323 H         1 UNK         0.2946 
    123 H123      -82.6192   22.7233  -73.3534 H         1 UNK         0.1144 
    124 H124      -82.9175   20.2485  -73.2461 H         1 UNK         0.0793 
    125 H125      -82.3261   20.8689  -71.7149 H         1 UNK         0.0793 
    126 H126      -81.2253   20.0409  -72.8178 H         1 UNK         0.0793 
    127 H127      -80.0169   22.0930  -72.2077 H         1 UNK         0.2896 
@<TRIPOS>BOND
     1    1    2 1    
     2    1   67 1    
     3    1   68 1    
     4    1   69 1    
     5    2    3 2    
     6    2    4 am   BACKBONE|DICT|INTERRES
     7    4    5 1    
     8    4   70 1    
     9    5    6 1    
    10    5   65 1    
    11    5   71 1    
    12    6    7 1    
    13    6   72 1    
    14    6   73 1    
    15    7    8 1    
    16    8    9 1    
    17    8   74 1    
    18    8   75 1    
    19    9   10 ar   
    20    9   14 ar   
    21   10   11 ar   
    22   10   76 1    
    23   11   12 ar   
    24   11   48 1    
    25   12   13 ar   
    26   12   77 1    
    27   13   14 ar   
    28   13   15 1    
    29   14   78 1    
    30   15   16 1    
    31   15   79 1    
    32   15   80 1    
    33   16   17 1    
    34   17   18 1    
    35   17   81 1    
    36   17   82 1    
    37   18   19 1    
    38   18   22 1    
    39   18   83 1    
    40   19   20 am   BACKBONE|DICT|INTERRES
    41   19   21 2    
    42   20   84 1    
    43   20   85 1    
    44   22   23 am   BACKBONE|DICT|INTERRES
    45   22   86 1    
    46   23   24 2    
    47   23   25 1    
    48   25   26 1    
    49   25   27 1    
    50   25   87 1    
    51   26   88 1    
    52   26   89 1    
    53   26   90 1    
    54   27   28 am   BACKBONE|DICT|INTERRES
    55   27   91 1    
    56   28   29 2    
    57   28   30 1    
    58   30   31 1    
    59   30   32 1    
    60   30   92 1    
    61   31   93 1    
    62   31   94 1    
    63   31   95 1    
    64   32   33 am   BACKBONE|DICT|INTERRES
    65   32   96 1    
    66   33   34 2    
    67   33   35 1    
    68   35   36 1    
    69   35   37 1    
    70   35   97 1    
    71   36   98 1    
    72   36   99 1    
    73   36  100 1    
    74   37   38 am   BACKBONE|DICT|INTERRES
    75   37  101 1    
    76   38   39 2    
    77   38   40 1    
    78   40   41 1    
    79   40   42 1    
    80   40  102 1    
    81   41  103 1    
    82   41  104 1    
    83   41  105 1    
    84   42   43 am   BACKBONE|DICT|INTERRES
    85   42  106 1    
    86   43   44 2    
    87   43   45 1    
    88   45   46 1    
    89   45   49 1    
    90   45  107 1    
    91   46   47 1    
    92   46  108 1    
    93   46  109 1    
    94   47   48 1    
    95   48  110 1    
    96   48  111 1    
    97   49   50 am   BACKBONE|DICT|INTERRES
    98   49  112 1    
    99   50   51 2    
   100   50   52 1    
   101   52   53 1    
   102   52   54 1    
   103   52  113 1    
   104   53  114 1    
   105   53  115 1    
   106   53  116 1    
   107   54   55 am   BACKBONE|DICT|INTERRES
   108   54  117 1    
   109   55   56 2    
   110   55   57 1    
   111   57   58 1    
   112   57   59 1    
   113   57  118 1    
   114   58  119 1    
   115   58  120 1    
   116   58  121 1    
   117   59   60 am   BACKBONE|DICT|INTERRES
   118   59  122 1    
   119   60   61 2    
   120   60   62 1    
   121   62   63 1    
   122   62   64 1    
   123   62  123 1    
   124   63  124 1    
   125   63  125 1    
   126   63  126 1    
   127   64   65 am   BACKBONE|DICT|INTERRES
   128   64  127 1    
   129   65   66 2    
@<TRIPOS>SUBSTRUCTURE
     1 UNK         1 GROUP             0       ****    0 ROOT    
