@<TRIPOS>MOLECULE
3R135
127   129    1
SMALL
USER_CHARGES


@<TRIPOS>ATOM
      1 CA        -80.0814   21.8621  -70.9132 C.3       0 UNK        -0.1998 
      2 C         -79.9070   23.2951  -71.3920 C.2       0 UNK         0.4909 
      3 O         -78.8989   23.6061  -72.0246 O.2       0 UNK        -0.5240 
      4 N         -80.8898   24.1613  -71.1070 N.am      1 UNK        -0.4739 
      5 CA        -80.9223   25.5912  -71.4472 C.3       1 UNK         0.0864 
      6 C6        -79.9242   26.4270  -70.5970 C.3       11 UNK        -0.0881 
      7 S7        -80.5997   28.0696  -70.1872 S.3       11 UNK        -0.2682 
      8 C8        -79.0940   29.1010  -70.1549 C.3       11 UNK         0.0289 
      9 C9        -78.6269   29.6167  -71.5166 C.ar      11 UNK        -0.0687 
     10 C10       -79.5293   29.9277  -72.5419 C.ar      11 UNK        -0.0823 
     11 C11       -79.0847   30.4843  -73.7458 C.ar      11 UNK        -0.0830 
     12 C12       -77.7188   30.7286  -73.9219 C.ar      11 UNK        -0.1021 
     13 C13       -76.8031   30.4200  -72.9118 C.ar      11 UNK        -0.0753 
     14 C14       -77.2656   29.8690  -71.7129 C.ar      11 UNK        -0.0933 
     15 C15       -75.3271   30.7457  -73.0975 C.3       11 UNK         0.0166 
     16 S16       -74.3385   29.2894  -73.5682 S.3       11 UNK        -0.2615 
     17 C17       -73.7234   28.7214  -71.9436 C.3       11 UNK        -0.0865 
     18 CA        -72.4580   29.5014  -71.4810 C.3       10 UNK         0.0862 
     19 C         -72.0972   29.2523  -69.9829 C.2       10 UNK         0.5551 
     20 N         -70.8354   29.3618  -69.5852 N.am      10 UNK        -0.7319 
     21 O         -72.9726   28.9929  -69.1606 O.2       10 UNK        -0.5018 
     22 N         -71.3372   29.3731  -72.4317 N.am      10 UNK        -0.4509 
     23 C         -70.6160   28.2686  -72.6653 C.2       10 UNK         0.4899 
     24 O         -70.7681   27.1993  -72.0724 O.2       10 UNK        -0.4839 
     25 CA        -69.5569   28.4031  -73.7731 C.3       9 UNK         0.0222 
     26 CB        -68.4433   27.3372  -73.6767 C.3       9 UNK        -0.1966 
     27 N         -70.1757   28.4171  -75.1055 N.am      9 UNK        -0.4218 
     28 C         -70.8627   27.4270  -75.6956 C.2       9 UNK         0.5020 
     29 O         -71.0428   26.3075  -75.2058 O.2       9 UNK        -0.5274 
     30 CA        -71.4195   27.7304  -77.0940 C.3       8 UNK         0.0270 
     31 CB        -70.2874   27.9380  -78.1213 C.3       8 UNK        -0.1976 
     32 N         -72.2557   26.6036  -77.4917 N.am      8 UNK        -0.4313 
     33 C         -73.1912   26.5895  -78.4449 C.2       8 UNK         0.5041 
     34 O         -73.4506   27.5629  -79.1563 O.2       8 UNK        -0.5577 
     35 CA        -73.9463   25.2655  -78.6669 C.3       7 UNK         0.0284 
     36 CB        -73.6473   24.1789  -77.6118 C.3       7 UNK        -0.1958 
     37 N         -75.3830   25.5246  -78.6746 N.am      7 UNK        -0.4454 
     38 C         -76.1656   25.5542  -79.7598 C.2       7 UNK         0.5089 
     39 O         -75.7600   25.3323  -80.9021 O.2       7 UNK        -0.5125 
     40 CA        -77.6638   25.8557  -79.5531 C.3       6 UNK         0.0408 
     41 CB        -78.4962   24.5800  -79.7613 C.3       6 UNK        -0.1791 
     42 N         -77.9848   26.4160  -78.2382 N.am      6 UNK        -0.4762 
     43 C         -77.7004   27.6640  -77.8403 C.2       6 UNK         0.5007 
     44 O         -77.1753   28.5086  -78.5662 O.2       6 UNK        -0.5032 
     45 CA        -78.0346   28.0136  -76.3740 C.3       5 UNK         0.0783 
     46 C46       -79.5050   28.4852  -76.2299 C.3       11 UNK        -0.0857 
     47 S47       -79.6615   30.2804  -76.4959 S.3       11 UNK        -0.2512 
     48 C48       -80.0978   30.8667  -74.8231 C.3       11 UNK         0.0225 
     49 N         -77.7132   26.9304  -75.4378 N.am      5 UNK        -0.4615 
     50 C         -76.4921   26.4038  -75.2619 C.2       4 UNK         0.5053 
     51 O         -75.4930   26.7602  -75.8836 O.2       4 UNK        -0.5105 
     52 CA        -76.3758   25.2418  -74.2644 C.3       4 UNK         0.0263 
     53 CB        -76.3668   25.7664  -72.8209 C.3       4 UNK        -0.1981 
     54 N         -77.4531   24.2660  -74.4384 N.am      4 UNK        -0.4224 
     55 C         -77.6152   23.5091  -75.5346 C.2       3 UNK         0.4895 
     56 O         -76.8178   23.4748  -76.4711 O.2       3 UNK        -0.5091 
     57 CA        -78.9096   22.6863  -75.6277 C.3       3 UNK         0.0250 
     58 CB        -78.7958   21.3806  -74.8248 C.3       3 UNK        -0.1996 
     59 N         -80.0831   23.4477  -75.1925 N.am      3 UNK        -0.4254 
     60 C         -80.5692   24.5198  -75.8362 C.2       2 UNK         0.5004 
     61 O         -80.1023   24.9582  -76.8863 O.2       2 UNK        -0.5226 
     62 CA        -81.7595   25.2463  -75.1885 C.3       2 UNK         0.0269 
     63 CB        -83.0878   24.6601  -75.6919 C.3       2 UNK        -0.1926 
     64 N         -81.7323   25.2117  -73.7233 N.am      2 UNK        -0.4687 
     65 C         -80.8011   25.8166  -72.9712 C.2       1 UNK         0.5165 
     66 O         -79.8641   26.4597  -73.4468 O.2       1 UNK        -0.5079 
     67 H67       -80.1690   21.1886  -71.7650 H         1 UNK         0.0900 
     68 H68       -79.2161   21.5572  -70.3253 H         1 UNK         0.0900 
     69 H69       -80.9698   21.7441  -70.2932 H         1 UNK         0.0900 
     70 H70       -81.6960   23.8269  -70.5968 H         1 UNK         0.2959 
     71 H71       -81.9323   25.9115  -71.1850 H         1 UNK         0.1079 
     72 H72       -79.7317   25.9281  -69.6459 H         1 UNK         0.0837 
     73 H73       -78.9491   26.5175  -71.0757 H         1 UNK         0.0837 
     74 H74       -79.2920   29.9665  -69.5217 H         1 UNK         0.0685 
     75 H75       -78.2965   28.5404  -69.6643 H         1 UNK         0.0685 
     76 H76       -80.5869   29.7616  -72.3943 H         1 UNK         0.1434 
     77 H77       -77.3706   31.1754  -74.8431 H         1 UNK         0.1329 
     78 H78       -76.5684   29.6640  -70.9138 H         1 UNK         0.1335 
     79 H79       -74.9303   31.1959  -72.1868 H         1 UNK         0.0680 
     80 H80       -75.2093   31.5011  -73.8759 H         1 UNK         0.0680 
     81 H81       -74.5292   28.8084  -71.2159 H         1 UNK         0.1032 
     82 H82       -73.5011   27.6555  -72.0104 H         1 UNK         0.1032 
     83 H83       -72.7157   30.5605  -71.5015 H         1 UNK         0.0461 
     84 H84       -70.1093   29.5832  -70.2473 H         1 UNK         0.3453 
     85 H85       -70.6077   29.2116  -68.6150 H         1 UNK         0.3453 
     86 H86       -71.1325   30.2030  -72.9690 H         1 UNK         0.2984 
     87 H87       -69.0789   29.3756  -73.6438 H         1 UNK         0.0554 
     88 H88       -67.9366   27.3942  -72.7126 H         1 UNK         0.0847 
     89 H89       -67.6881   27.4816  -74.4492 H         1 UNK         0.0847 
     90 H90       -68.8316   26.3230  -73.7746 H         1 UNK         0.0847 
     91 H91       -70.1011   29.2933  -75.6040 H         1 UNK         0.3141 
     92 H92       -72.0392   28.6275  -77.0309 H         1 UNK         0.0743 
     93 H93       -69.6436   27.0602  -78.1906 H         1 UNK         0.0784 
     94 H94       -70.6836   28.1392  -79.1168 H         1 UNK         0.0784 
     95 H95       -69.6563   28.7861  -77.8541 H         1 UNK         0.0784 
     96 H96       -72.1377   25.7959  -76.8900 H         1 UNK         0.3213 
     97 H97       -73.6257   24.8817  -79.6374 H         1 UNK         0.0855 
     98 H98       -73.9024   24.5076  -76.6032 H         1 UNK         0.0814 
     99 H99       -72.5955   23.8904  -77.6195 H         1 UNK         0.0814 
    100 H100      -74.2231   23.2749  -77.8121 H         1 UNK         0.0814 
    101 H101      -75.7854   25.7859  -77.7818 H         1 UNK         0.3105 
    102 H102      -77.9582   26.5817  -80.3136 H         1 UNK         0.0547 
    103 H103      -79.5644   24.7878  -79.6968 H         1 UNK         0.0837 
    104 H104      -78.3100   24.1440  -80.7436 H         1 UNK         0.0837 
    105 H105      -78.2579   23.8206  -79.0152 H         1 UNK         0.0837 
    106 H106      -78.4864   25.8057  -77.5973 H         1 UNK         0.3020 
    107 H107      -77.3706   28.8341  -76.0928 H         1 UNK         0.1245 
    108 H108      -79.8851   28.2620  -75.2340 H         1 UNK         0.0781 
    109 H109      -80.1737   27.9581  -76.9136 H         1 UNK         0.0781 
    110 H110      -81.0886   30.4831  -74.5740 H         1 UNK         0.0836 
    111 H111      -80.1883   31.9533  -74.8463 H         1 UNK         0.0836 
    112 H112      -78.4708   26.6069  -74.8428 H         1 UNK         0.3022 
    113 H113      -75.4286   24.7302  -74.4476 H         1 UNK         0.0747 
    114 H114      -77.2625   26.3456  -72.6000 H         1 UNK         0.0793 
    115 H115      -76.3035   24.9526  -72.0984 H         1 UNK         0.0793 
    116 H116      -75.5117   26.4209  -72.6544 H         1 UNK         0.0793 
    117 H117      -78.1274   24.1888  -73.6800 H         1 UNK         0.3047 
    118 H118      -79.0576   22.4241  -76.6778 H         1 UNK         0.0822 
    119 H119      -77.9650   20.7750  -75.1894 H         1 UNK         0.0807 
    120 H120      -79.6992   20.7772  -74.9148 H         1 UNK         0.0807 
    121 H121      -78.6178   21.5668  -73.7659 H         1 UNK         0.0807 
    122 H122      -80.5097   23.1782  -74.3189 H         1 UNK         0.2946 
    123 H123      -81.7074   26.2920  -75.5000 H         1 UNK         0.1144 
    124 H124      -83.9400   25.2235  -75.3114 H         1 UNK         0.0793 
    125 H125      -83.2112   23.6187  -75.3922 H         1 UNK         0.0793 
    126 H126      -83.1400   24.6941  -76.7812 H         1 UNK         0.0793 
    127 H127      -82.4573   24.6788  -73.2641 H         1 UNK         0.2896 
@<TRIPOS>BOND
     1    1    2 1    
     2    1   67 1    
     3    1   68 1    
     4    1   69 1    
     5    2    3 2    
     6    2    4 am   BACKBONE|DICT|INTERRES
     7    4    5 1    
     8    4   70 1    
     9    5    6 1    
    10    5   65 1    
    11    5   71 1    
    12    6    7 1    
    13    6   72 1    
    14    6   73 1    
    15    7    8 1    
    16    8    9 1    
    17    8   74 1    
    18    8   75 1    
    19    9   10 ar   
    20    9   14 ar   
    21   10   11 ar   
    22   10   76 1    
    23   11   12 ar   
    24   11   48 1    
    25   12   13 ar   
    26   12   77 1    
    27   13   14 ar   
    28   13   15 1    
    29   14   78 1    
    30   15   16 1    
    31   15   79 1    
    32   15   80 1    
    33   16   17 1    
    34   17   18 1    
    35   17   81 1    
    36   17   82 1    
    37   18   19 1    
    38   18   22 1    
    39   18   83 1    
    40   19   20 am   BACKBONE|DICT|INTERRES
    41   19   21 2    
    42   20   84 1    
    43   20   85 1    
    44   22   23 am   BACKBONE|DICT|INTERRES
    45   22   86 1    
    46   23   24 2    
    47   23   25 1    
    48   25   26 1    
    49   25   27 1    
    50   25   87 1    
    51   26   88 1    
    52   26   89 1    
    53   26   90 1    
    54   27   28 am   BACKBONE|DICT|INTERRES
    55   27   91 1    
    56   28   29 2    
    57   28   30 1    
    58   30   31 1    
    59   30   32 1    
    60   30   92 1    
    61   31   93 1    
    62   31   94 1    
    63   31   95 1    
    64   32   33 am   BACKBONE|DICT|INTERRES
    65   32   96 1    
    66   33   34 2    
    67   33   35 1    
    68   35   36 1    
    69   35   37 1    
    70   35   97 1    
    71   36   98 1    
    72   36   99 1    
    73   36  100 1    
    74   37   38 am   BACKBONE|DICT|INTERRES
    75   37  101 1    
    76   38   39 2    
    77   38   40 1    
    78   40   41 1    
    79   40   42 1    
    80   40  102 1    
    81   41  103 1    
    82   41  104 1    
    83   41  105 1    
    84   42   43 am   BACKBONE|DICT|INTERRES
    85   42  106 1    
    86   43   44 2    
    87   43   45 1    
    88   45   46 1    
    89   45   49 1    
    90   45  107 1    
    91   46   47 1    
    92   46  108 1    
    93   46  109 1    
    94   47   48 1    
    95   48  110 1    
    96   48  111 1    
    97   49   50 am   BACKBONE|DICT|INTERRES
    98   49  112 1    
    99   50   51 2    
   100   50   52 1    
   101   52   53 1    
   102   52   54 1    
   103   52  113 1    
   104   53  114 1    
   105   53  115 1    
   106   53  116 1    
   107   54   55 am   BACKBONE|DICT|INTERRES
   108   54  117 1    
   109   55   56 2    
   110   55   57 1    
   111   57   58 1    
   112   57   59 1    
   113   57  118 1    
   114   58  119 1    
   115   58  120 1    
   116   58  121 1    
   117   59   60 am   BACKBONE|DICT|INTERRES
   118   59  122 1    
   119   60   61 2    
   120   60   62 1    
   121   62   63 1    
   122   62   64 1    
   123   62  123 1    
   124   63  124 1    
   125   63  125 1    
   126   63  126 1    
   127   64   65 am   BACKBONE|DICT|INTERRES
   128   64  127 1    
   129   65   66 2    
@<TRIPOS>SUBSTRUCTURE
     1 UNK         1 GROUP             0       ****    0 ROOT    
