@<TRIPOS>MOLECULE
3R135
127   129    1
SMALL
USER_CHARGES


@<TRIPOS>ATOM
      1 CA        -84.0891   29.4856  -79.2057 C.3       0 UNK        -0.1998 
      2 C         -83.0303   28.8863  -78.2919 C.2       0 UNK         0.4909 
      3 O         -82.2340   28.0592  -78.7381 O.2       0 UNK        -0.5240 
      4 N         -83.0100   29.3025  -77.0191 N.am      1 UNK        -0.4739 
      5 CA        -82.1078   28.7820  -75.9852 C.3       1 UNK         0.0864 
      6 C6        -81.9756   29.7809  -74.8022 C.3       11 UNK        -0.0881 
      7 S7        -80.2541   29.9031  -74.2230 S.3       11 UNK        -0.2682 
      8 C8        -80.3331   29.0903  -72.5919 C.3       11 UNK         0.0289 
      9 C9        -78.9600   28.6834  -72.0598 C.ar      11 UNK        -0.0687 
     10 C10       -78.8015   27.4439  -71.4311 C.ar      11 UNK        -0.0823 
     11 C11       -77.5591   27.0590  -70.9195 C.ar      11 UNK        -0.0830 
     12 C12       -76.4686   27.9201  -71.0443 C.ar      11 UNK        -0.1021 
     13 C13       -76.5931   29.1452  -71.7053 C.ar      11 UNK        -0.0753 
     14 C14       -77.8492   29.5274  -72.1875 C.ar      11 UNK        -0.0933 
     15 C15       -75.3863   30.0392  -71.9848 C.3       11 UNK         0.0166 
     16 S16       -74.1480   30.1280  -70.6451 S.3       11 UNK        -0.2615 
     17 C17       -73.0149   28.7367  -71.0082 C.3       11 UNK        -0.0865 
     18 CA        -71.8480   29.1427  -71.9481 C.3       10 UNK         0.0862 
     19 C         -70.6180   28.1941  -71.8139 C.2       10 UNK         0.5551 
     20 N         -69.9883   27.7459  -72.8940 N.am      10 UNK        -0.7319 
     21 O         -70.2095   27.8687  -70.7018 O.2       10 UNK        -0.5018 
     22 N         -72.3260   29.2719  -73.3320 N.am      10 UNK        -0.4509 
     23 C         -71.9455   30.2159  -74.1987 C.2       10 UNK         0.4899 
     24 O         -71.1936   31.1498  -73.9141 O.2       10 UNK        -0.4839 
     25 CA        -72.4898   30.0657  -75.6333 C.3       9 UNK         0.0222 
     26 CB        -71.8073   31.0155  -76.6400 C.3       9 UNK        -0.1966 
     27 N         -72.4443   28.6799  -76.1202 N.am      9 UNK        -0.4218 
     28 C         -71.3634   27.8868  -76.2134 C.2       9 UNK         0.5020 
     29 O         -70.2318   28.2416  -75.8802 O.2       9 UNK        -0.5274 
     30 CA        -71.5540   26.4418  -76.7168 C.3       8 UNK         0.0270 
     31 CB        -71.1728   25.4397  -75.6133 C.3       8 UNK        -0.1976 
     32 N         -72.9120   26.1413  -77.1719 N.am      8 UNK        -0.4313 
     33 C         -73.4616   26.5589  -78.3190 C.2       8 UNK         0.5041 
     34 O         -72.8535   27.1928  -79.1817 O.2       8 UNK        -0.5577 
     35 CA        -74.9604   26.2625  -78.5064 C.3       7 UNK         0.0284 
     36 CB        -75.1714   24.8673  -79.1159 C.3       7 UNK        -0.1958 
     37 N         -75.7258   26.3817  -77.2590 N.am      7 UNK        -0.4454 
     38 C         -75.8711   27.5186  -76.5611 C.2       7 UNK         0.5089 
     39 O         -75.3808   28.5964  -76.8957 O.2       7 UNK        -0.5125 
     40 CA        -76.6620   27.4279  -75.2493 C.3       6 UNK         0.0408 
     41 CB        -78.1661   27.3789  -75.5394 C.3       6 UNK        -0.1791 
     42 N         -76.2723   26.2663  -74.4505 N.am      6 UNK        -0.4762 
     43 C         -75.0820   26.1310  -73.8457 C.2       6 UNK         0.5007 
     44 O         -74.2128   27.0065  -73.8397 O.2       6 UNK        -0.5032 
     45 CA        -74.7737   24.7590  -73.2077 C.3       5 UNK         0.0783 
     46 C46       -75.1691   24.6754  -71.7105 C.3       11 UNK        -0.0857 
     47 S47       -76.9533   24.3965  -71.4123 S.3       11 UNK        -0.2512 
     48 C48       -77.3904   25.7128  -70.2325 C.3       11 UNK         0.0225 
     49 N         -75.3178   23.6403  -73.9842 N.am      5 UNK        -0.4615 
     50 C         -74.9595   23.3262  -75.2353 C.2       4 UNK         0.5053 
     51 O         -74.0925   23.9305  -75.8628 O.2       4 UNK        -0.5105 
     52 CA        -75.6989   22.1622  -75.9151 C.3       4 UNK         0.0263 
     53 CB        -74.8735   20.8706  -75.8067 C.3       4 UNK        -0.1981 
     54 N         -77.0435   21.9269  -75.3811 N.am      4 UNK        -0.4224 
     55 C         -78.0828   22.7617  -75.5238 C.2       3 UNK         0.4895 
     56 O         -78.0151   23.8215  -76.1515 O.2       3 UNK        -0.5091 
     57 CA        -79.4087   22.2930  -74.8841 C.3       3 UNK         0.0250 
     58 CB        -79.2211   21.7975  -73.4321 C.3       3 UNK        -0.1996 
     59 N         -80.5025   23.2733  -74.9377 N.am      3 UNK        -0.4254 
     60 C         -80.5371   24.4942  -74.3839 C.2       2 UNK         0.5004 
     61 O         -79.6029   25.0199  -73.7779 O.2       2 UNK        -0.5226 
     62 CA        -81.8713   25.2409  -74.4760 C.3       2 UNK         0.0269 
     63 CB        -82.5768   25.2577  -73.1056 C.3       2 UNK        -0.1926 
     64 N         -81.6321   26.6046  -74.9422 N.am      2 UNK        -0.4687 
     65 C         -82.5595   27.3820  -75.5130 C.2       1 UNK         0.5165 
     66 O         -83.7370   27.0376  -75.6528 O.2       1 UNK        -0.5079 
     67 H67       -84.7377   28.7003  -79.5929 H         1 UNK         0.0900 
     68 H68       -84.7115   30.2139  -78.6861 H         1 UNK         0.0900 
     69 H69       -83.6164   29.9854  -80.0507 H         1 UNK         0.0900 
     70 H70       -83.7132   29.9541  -76.7012 H         1 UNK         0.2959 
     71 H71       -81.1315   28.6603  -76.4610 H         1 UNK         0.1079 
     72 H72       -82.2548   30.7875  -75.1183 H         1 UNK         0.0837 
     73 H73       -82.6489   29.5434  -73.9755 H         1 UNK         0.0837 
     74 H74       -80.8056   29.7665  -71.8786 H         1 UNK         0.0685 
     75 H75       -80.9777   28.2135  -72.6661 H         1 UNK         0.0685 
     76 H76       -79.6439   26.7711  -71.3434 H         1 UNK         0.1434 
     77 H77       -75.5193   27.6168  -70.6374 H         1 UNK         0.1329 
     78 H78       -77.9570   30.4781  -72.6907 H         1 UNK         0.1335 
     79 H79       -74.9172   29.7032  -72.9086 H         1 UNK         0.0680 
     80 H80       -75.7247   31.0590  -72.1742 H         1 UNK         0.0680 
     81 H81       -72.6397   28.3964  -70.0414 H         1 UNK         0.1032 
     82 H82       -73.5517   27.8891  -71.4304 H         1 UNK         0.1032 
     83 H83       -71.4810   30.1129  -71.6086 H         1 UNK         0.0461 
     84 H84       -69.1903   27.1426  -72.7767 H         1 UNK         0.3453 
     85 H85       -70.2584   28.0449  -73.8231 H         1 UNK         0.3453 
     86 H86       -72.9334   28.5239  -73.6552 H         1 UNK         0.2984 
     87 H87       -73.5454   30.3369  -75.5869 H         1 UNK         0.0554 
     88 H88       -71.9369   32.0575  -76.3451 H         1 UNK         0.0847 
     89 H89       -72.2329   30.9068  -77.6376 H         1 UNK         0.0847 
     90 H90       -70.7352   30.8282  -76.7103 H         1 UNK         0.0847 
     91 H91       -73.3406   28.2998  -76.4029 H         1 UNK         0.3141 
     92 H92       -70.8729   26.3004  -77.5584 H         1 UNK         0.0743 
     93 H93       -71.8056   25.5542  -74.7324 H         1 UNK         0.0784 
     94 H94       -71.2653   24.4106  -75.9611 H         1 UNK         0.0784 
     95 H95       -70.1396   25.5797  -75.2929 H         1 UNK         0.0784 
     96 H96       -73.4659   25.5350  -76.5692 H         1 UNK         0.3213 
     97 H97       -75.3568   27.0024  -79.2052 H         1 UNK         0.0855 
     98 H98       -74.7648   24.0805  -78.4807 H         1 UNK         0.0814 
     99 H99       -74.6746   24.7893  -80.0839 H         1 UNK         0.0814 
    100 H100      -76.2290   24.6577  -79.2769 H         1 UNK         0.0814 
    101 H101      -76.1586   25.5415  -76.8991 H         1 UNK         0.3105 
    102 H102      -76.4571   28.3272  -74.6650 H         1 UNK         0.0547 
    103 H103      -78.4804   28.2490  -76.1169 H         1 UNK         0.0837 
    104 H104      -78.4471   26.4892  -76.1035 H         1 UNK         0.0837 
    105 H105      -78.7319   27.3790  -74.6099 H         1 UNK         0.0837 
    106 H106      -76.9399   25.5073  -74.3912 H         1 UNK         0.3020 
    107 H107      -73.6864   24.6612  -73.2509 H         1 UNK         0.1245 
    108 H108      -74.8181   25.5520  -71.1672 H         1 UNK         0.0781 
    109 H109      -74.6421   23.8353  -71.2557 H         1 UNK         0.0781 
    110 H110      -76.6362   25.7715  -69.4462 H         1 UNK         0.0836 
    111 H111      -78.3217   25.4375  -69.7353 H         1 UNK         0.0836 
    112 H112      -76.0546   23.1131  -73.5389 H         1 UNK         0.3022 
    113 H113      -75.7994   22.4138  -76.9727 H         1 UNK         0.0747 
    114 H114      -75.3394   20.0535  -76.3580 H         1 UNK         0.0793 
    115 H115      -73.8747   21.0107  -76.2230 H         1 UNK         0.0793 
    116 H116      -74.7526   20.5528  -74.7703 H         1 UNK         0.0793 
    117 H117      -77.1816   21.0654  -74.8726 H         1 UNK         0.3047 
    118 H118      -79.7442   21.4449  -75.4830 H         1 UNK         0.0822 
    119 H119      -80.1697   21.4765  -73.0014 H         1 UNK         0.0807 
    120 H120      -78.8179   22.5792  -72.7889 H         1 UNK         0.0807 
    121 H121      -78.5468   20.9431  -73.3733 H         1 UNK         0.0807 
    122 H122      -81.3220   22.9621  -75.4401 H         1 UNK         0.2946 
    123 H123      -82.5127   24.7297  -75.1980 H         1 UNK         0.1144 
    124 H124      -83.5544   25.7363  -73.1624 H         1 UNK         0.0793 
    125 H125      -81.9868   25.7881  -72.3573 H         1 UNK         0.0793 
    126 H126      -82.7355   24.2435  -72.7366 H         1 UNK         0.0793 
    127 H127      -80.6803   26.9315  -74.8391 H         1 UNK         0.2896 
@<TRIPOS>BOND
     1    1    2 1    
     2    1   67 1    
     3    1   68 1    
     4    1   69 1    
     5    2    3 2    
     6    2    4 am   BACKBONE|DICT|INTERRES
     7    4    5 1    
     8    4   70 1    
     9    5    6 1    
    10    5   65 1    
    11    5   71 1    
    12    6    7 1    
    13    6   72 1    
    14    6   73 1    
    15    7    8 1    
    16    8    9 1    
    17    8   74 1    
    18    8   75 1    
    19    9   10 ar   
    20    9   14 ar   
    21   10   11 ar   
    22   10   76 1    
    23   11   12 ar   
    24   11   48 1    
    25   12   13 ar   
    26   12   77 1    
    27   13   14 ar   
    28   13   15 1    
    29   14   78 1    
    30   15   16 1    
    31   15   79 1    
    32   15   80 1    
    33   16   17 1    
    34   17   18 1    
    35   17   81 1    
    36   17   82 1    
    37   18   19 1    
    38   18   22 1    
    39   18   83 1    
    40   19   20 am   BACKBONE|DICT|INTERRES
    41   19   21 2    
    42   20   84 1    
    43   20   85 1    
    44   22   23 am   BACKBONE|DICT|INTERRES
    45   22   86 1    
    46   23   24 2    
    47   23   25 1    
    48   25   26 1    
    49   25   27 1    
    50   25   87 1    
    51   26   88 1    
    52   26   89 1    
    53   26   90 1    
    54   27   28 am   BACKBONE|DICT|INTERRES
    55   27   91 1    
    56   28   29 2    
    57   28   30 1    
    58   30   31 1    
    59   30   32 1    
    60   30   92 1    
    61   31   93 1    
    62   31   94 1    
    63   31   95 1    
    64   32   33 am   BACKBONE|DICT|INTERRES
    65   32   96 1    
    66   33   34 2    
    67   33   35 1    
    68   35   36 1    
    69   35   37 1    
    70   35   97 1    
    71   36   98 1    
    72   36   99 1    
    73   36  100 1    
    74   37   38 am   BACKBONE|DICT|INTERRES
    75   37  101 1    
    76   38   39 2    
    77   38   40 1    
    78   40   41 1    
    79   40   42 1    
    80   40  102 1    
    81   41  103 1    
    82   41  104 1    
    83   41  105 1    
    84   42   43 am   BACKBONE|DICT|INTERRES
    85   42  106 1    
    86   43   44 2    
    87   43   45 1    
    88   45   46 1    
    89   45   49 1    
    90   45  107 1    
    91   46   47 1    
    92   46  108 1    
    93   46  109 1    
    94   47   48 1    
    95   48  110 1    
    96   48  111 1    
    97   49   50 am   BACKBONE|DICT|INTERRES
    98   49  112 1    
    99   50   51 2    
   100   50   52 1    
   101   52   53 1    
   102   52   54 1    
   103   52  113 1    
   104   53  114 1    
   105   53  115 1    
   106   53  116 1    
   107   54   55 am   BACKBONE|DICT|INTERRES
   108   54  117 1    
   109   55   56 2    
   110   55   57 1    
   111   57   58 1    
   112   57   59 1    
   113   57  118 1    
   114   58  119 1    
   115   58  120 1    
   116   58  121 1    
   117   59   60 am   BACKBONE|DICT|INTERRES
   118   59  122 1    
   119   60   61 2    
   120   60   62 1    
   121   62   63 1    
   122   62   64 1    
   123   62  123 1    
   124   63  124 1    
   125   63  125 1    
   126   63  126 1    
   127   64   65 am   BACKBONE|DICT|INTERRES
   128   64  127 1    
   129   65   66 2    
@<TRIPOS>SUBSTRUCTURE
     1 UNK         1 GROUP             0       ****    0 ROOT    
