@<TRIPOS>MOLECULE
3R135
127   129    1
SMALL
USER_CHARGES


@<TRIPOS>ATOM
      1 CA        -82.5249   26.3258  -70.3463 C.3       0 UNK        -0.1998 
      2 C         -82.9522   26.6715  -71.7648 C.2       0 UNK         0.4909 
      3 O         -84.1453   26.6523  -72.0678 O.2       0 UNK        -0.5240 
      4 N         -81.9846   26.9776  -72.6392 N.am      1 UNK        -0.4739 
      5 CA        -82.2107   27.3379  -74.0478 C.3       1 UNK         0.0864 
      6 C6        -81.1056   28.2825  -74.5861 C.3       11 UNK        -0.0881 
      7 S7        -81.1545   29.9052  -73.7511 S.3       11 UNK        -0.2682 
      8 C8        -79.4442   30.5069  -73.9832 C.3       11 UNK         0.0289 
      9 C9        -78.3626   29.8232  -73.1423 C.ar      11 UNK        -0.0687 
     10 C10       -78.6513   28.8993  -72.1279 C.ar      11 UNK        -0.0823 
     11 C11       -77.6251   28.2852  -71.4046 C.ar      11 UNK        -0.0830 
     12 C12       -76.2980   28.6260  -71.6721 C.ar      11 UNK        -0.1021 
     13 C13       -75.9915   29.5435  -72.6782 C.ar      11 UNK        -0.0753 
     14 C14       -77.0257   30.1434  -73.4019 C.ar      11 UNK        -0.0933 
     15 C15       -74.5402   29.8426  -73.0094 C.3       11 UNK         0.0166 
     16 S16       -73.9460   31.3192  -72.1265 S.3       11 UNK        -0.2615 
     17 C17       -72.2183   30.8591  -71.7485 C.3       11 UNK        -0.0865 
     18 CA        -71.2168   31.2256  -72.8756 C.3       10 UNK         0.0862 
     19 C         -69.7501   30.9913  -72.4036 C.2       10 UNK         0.5551 
     20 N         -69.0036   30.0475  -72.9672 N.am      10 UNK        -0.7319 
     21 O         -69.2810   31.6862  -71.5056 O.2       10 UNK        -0.5018 
     22 N         -71.5585   30.5485  -74.1339 N.am      10 UNK        -0.4509 
     23 C         -71.1097   30.8865  -75.3477 C.2       10 UNK         0.4899 
     24 O         -70.4359   31.8933  -75.5714 O.2       10 UNK        -0.4839 
     25 CA        -71.4771   29.9314  -76.5031 C.3       9 UNK         0.0222 
     26 CB        -70.4238   29.9418  -77.6307 C.3       9 UNK        -0.1966 
     27 N         -71.7599   28.5506  -76.0790 N.am      9 UNK        -0.4218 
     28 C         -70.9339   27.7104  -75.4289 C.2       9 UNK         0.5020 
     29 O         -69.8089   28.0286  -75.0397 O.2       9 UNK        -0.5274 
     30 CA        -71.4462   26.2891  -75.1185 C.3       8 UNK         0.0270 
     31 CB        -71.7696   26.1562  -73.6212 C.3       8 UNK        -0.1976 
     32 N         -72.6225   25.9057  -75.9046 N.am      8 UNK        -0.4313 
     33 C         -72.6007   25.6472  -77.2215 C.2       8 UNK         0.5041 
     34 O         -71.5618   25.5797  -77.8798 O.2       8 UNK        -0.5577 
     35 CA        -73.9492   25.4669  -77.9479 C.3       7 UNK         0.0284 
     36 CB        -74.1806   23.9865  -78.2921 C.3       7 UNK        -0.1958 
     37 N         -75.1180   25.9832  -77.2267 N.am      7 UNK        -0.4454 
     38 C         -75.3020   27.2496  -76.8273 C.2       7 UNK         0.5089 
     39 O         -74.4937   28.1567  -77.0283 O.2       7 UNK        -0.5125 
     40 CA        -76.5691   27.5388  -76.0064 C.3       6 UNK         0.0408 
     41 CB        -77.7435   27.9068  -76.9257 C.3       6 UNK        -0.1791 
     42 N         -76.9561   26.4362  -75.1188 N.am      6 UNK        -0.4762 
     43 C         -76.2131   25.9727  -74.0997 C.2       6 UNK         0.5007 
     44 O         -75.0967   26.4074  -73.8168 O.2       6 UNK        -0.5032 
     45 CA        -76.7846   24.7680  -73.3233 C.3       5 UNK         0.0783 
     46 C46       -77.8895   25.1675  -72.3077 C.3       11 UNK        -0.0857 
     47 S47       -77.1880   25.6243  -70.6850 S.3       11 UNK        -0.2512 
     48 C48       -77.9507   27.2458  -70.3411 C.3       11 UNK         0.0225 
     49 N         -77.2426   23.7301  -74.2504 N.am      5 UNK        -0.4615 
     50 C         -76.4214   22.9585  -74.9760 C.2       4 UNK         0.5053 
     51 O         -75.1950   22.9806  -74.8768 O.2       4 UNK        -0.5105 
     52 CA        -77.0741   22.0150  -75.9994 C.3       4 UNK         0.0263 
     53 CB        -77.3458   20.6408  -75.3679 C.3       4 UNK        -0.1981 
     54 N         -78.3169   22.5365  -76.5748 N.am      4 UNK        -0.4224 
     55 C         -78.4305   23.6398  -77.3234 C.2       3 UNK         0.4895 
     56 O         -77.4883   24.3891  -77.5755 O.2       3 UNK        -0.5091 
     57 CA        -79.8273   23.9800  -77.8725 C.3       3 UNK         0.0250 
     58 CB        -80.2314   23.0092  -78.9989 C.3       3 UNK        -0.1996 
     59 N         -80.8827   24.0897  -76.8541 N.am      3 UNK        -0.4254 
     60 C         -81.3714   23.1558  -76.0256 C.2       2 UNK         0.5004 
     61 O         -80.9604   21.9942  -75.9879 O.2       2 UNK        -0.5226 
     62 CA        -82.4983   23.6000  -75.0692 C.3       2 UNK         0.0269 
     63 CB        -82.7973   22.5471  -73.9846 C.3       2 UNK        -0.1926 
     64 N         -82.2403   24.8859  -74.4089 N.am      2 UNK        -0.4687 
     65 C         -82.3932   26.1008  -74.9568 C.2       1 UNK         0.5165 
     66 O         -82.6655   26.2628  -76.1471 O.2       1 UNK        -0.5079 
     67 H67       -82.9225   27.0601  -69.6463 H         1 UNK         0.0900 
     68 H68       -81.4410   26.3055  -70.2383 H         1 UNK         0.0900 
     69 H69       -82.9101   25.3455  -70.0667 H         1 UNK         0.0900 
     70 H70       -81.0231   26.9754  -72.3358 H         1 UNK         0.2959 
     71 H71       -83.1579   27.8789  -74.1136 H         1 UNK         0.1079 
     72 H72       -81.2300   28.4664  -75.6553 H         1 UNK         0.0837 
     73 H73       -80.1205   27.8293  -74.4636 H         1 UNK         0.0837 
     74 H74       -79.1884   30.4212  -75.0404 H         1 UNK         0.0685 
     75 H75       -79.4310   31.5724  -73.7498 H         1 UNK         0.0685 
     76 H76       -79.6742   28.6480  -71.8946 H         1 UNK         0.1434 
     77 H77       -75.5005   28.1481  -71.1195 H         1 UNK         0.1329 
     78 H78       -76.7855   30.8522  -74.1828 H         1 UNK         0.1335 
     79 H79       -74.4284   29.9954  -74.0840 H         1 UNK         0.0680 
     80 H80       -73.9279   28.9747  -72.7613 H         1 UNK         0.0680 
     81 H81       -72.1603   29.7965  -71.5057 H         1 UNK         0.1032 
     82 H82       -71.9502   31.3823  -70.8284 H         1 UNK         0.1032 
     83 H83       -71.3047   32.2990  -73.0548 H         1 UNK         0.0461 
     84 H84       -69.3691   29.4596  -73.7093 H         1 UNK         0.3453 
     85 H85       -68.0572   29.9156  -72.6484 H         1 UNK         0.3453 
     86 H86       -72.0915   29.6980  -74.0500 H         1 UNK         0.2984 
     87 H87       -72.4105   30.3116  -76.9204 H         1 UNK         0.0554 
     88 H88       -70.7086   29.2757  -78.4452 H         1 UNK         0.0847 
     89 H89       -69.4432   29.6296  -77.2696 H         1 UNK         0.0847 
     90 H90       -70.3111   30.9399  -78.0556 H         1 UNK         0.0847 
     91 H91       -72.6818   28.2106  -76.3436 H         1 UNK         0.3141 
     92 H92       -70.6388   25.5929  -75.3552 H         1 UNK         0.0743 
     93 H93       -72.5334   26.8681  -73.3071 H         1 UNK         0.0784 
     94 H94       -72.1246   25.1547  -73.3771 H         1 UNK         0.0784 
     95 H95       -70.8835   26.3431  -73.0130 H         1 UNK         0.0784 
     96 H96       -73.5168   25.9340  -75.4285 H         1 UNK         0.3213 
     97 H97       -73.8802   26.0261  -78.8832 H         1 UNK         0.0855 
     98 H98       -74.2688   23.3747  -77.3944 H         1 UNK         0.0814 
     99 H99       -73.3516   23.5868  -78.8778 H         1 UNK         0.0814 
    100 H100      -75.0869   23.8510  -78.8826 H         1 UNK         0.0814 
    101 H101      -75.8841   25.3299  -77.0826 H         1 UNK         0.3105 
    102 H102      -76.3488   28.4025  -75.3797 H         1 UNK         0.0547 
    103 H103      -77.4766   28.7353  -77.5833 H         1 UNK         0.0837 
    104 H104      -78.0408   27.0717  -77.5605 H         1 UNK         0.0837 
    105 H105      -78.6137   28.2223  -76.3522 H         1 UNK         0.0837 
    106 H106      -77.8269   25.9735  -75.3290 H         1 UNK         0.3020 
    107 H107      -75.9508   24.3357  -72.7638 H         1 UNK         0.1245 
    108 H108      -78.5318   25.9596  -72.6957 H         1 UNK         0.0781 
    109 H109      -78.5516   24.3206  -72.1204 H         1 UNK         0.0781 
    110 H110      -79.0282   27.1137  -70.2363 H         1 UNK         0.0836 
    111 H111      -77.5924   27.6052  -69.3755 H         1 UNK         0.0836 
    112 H112      -78.2376   23.6306  -74.3826 H         1 UNK         0.3022 
    113 H113      -76.3642   21.8818  -76.8183 H         1 UNK         0.0747 
    114 H114      -77.7187   19.9319  -76.1074 H         1 UNK         0.0793 
    115 H115      -76.4336   20.2168  -74.9453 H         1 UNK         0.0793 
    116 H116      -78.0807   20.7040  -74.5642 H         1 UNK         0.0793 
    117 H117      -79.1769   22.0278  -76.3758 H         1 UNK         0.3047 
    118 H118      -79.7481   24.9734  -78.3174 H         1 UNK         0.0822 
    119 H119      -81.1701   23.3121  -79.4628 H         1 UNK         0.0807 
    120 H120      -80.3522   21.9872  -78.6386 H         1 UNK         0.0807 
    121 H121      -79.4748   22.9880  -79.7845 H         1 UNK         0.0807 
    122 H122      -81.3241   25.0027  -76.7889 H         1 UNK         0.2946 
    123 H123      -83.3964   23.7039  -75.6829 H         1 UNK         0.1144 
    124 H124      -83.0741   21.5905  -74.4302 H         1 UNK         0.0793 
    125 H125      -83.6287   22.8554  -73.3501 H         1 UNK         0.0793 
    126 H126      -81.9323   22.3709  -73.3440 H         1 UNK         0.0793 
    127 H127      -81.9968   24.8457  -73.4302 H         1 UNK         0.2896 
@<TRIPOS>BOND
     1    1    2 1    
     2    1   67 1    
     3    1   68 1    
     4    1   69 1    
     5    2    3 2    
     6    2    4 am   BACKBONE|DICT|INTERRES
     7    4    5 1    
     8    4   70 1    
     9    5    6 1    
    10    5   65 1    
    11    5   71 1    
    12    6    7 1    
    13    6   72 1    
    14    6   73 1    
    15    7    8 1    
    16    8    9 1    
    17    8   74 1    
    18    8   75 1    
    19    9   10 ar   
    20    9   14 ar   
    21   10   11 ar   
    22   10   76 1    
    23   11   12 ar   
    24   11   48 1    
    25   12   13 ar   
    26   12   77 1    
    27   13   14 ar   
    28   13   15 1    
    29   14   78 1    
    30   15   16 1    
    31   15   79 1    
    32   15   80 1    
    33   16   17 1    
    34   17   18 1    
    35   17   81 1    
    36   17   82 1    
    37   18   19 1    
    38   18   22 1    
    39   18   83 1    
    40   19   20 am   BACKBONE|DICT|INTERRES
    41   19   21 2    
    42   20   84 1    
    43   20   85 1    
    44   22   23 am   BACKBONE|DICT|INTERRES
    45   22   86 1    
    46   23   24 2    
    47   23   25 1    
    48   25   26 1    
    49   25   27 1    
    50   25   87 1    
    51   26   88 1    
    52   26   89 1    
    53   26   90 1    
    54   27   28 am   BACKBONE|DICT|INTERRES
    55   27   91 1    
    56   28   29 2    
    57   28   30 1    
    58   30   31 1    
    59   30   32 1    
    60   30   92 1    
    61   31   93 1    
    62   31   94 1    
    63   31   95 1    
    64   32   33 am   BACKBONE|DICT|INTERRES
    65   32   96 1    
    66   33   34 2    
    67   33   35 1    
    68   35   36 1    
    69   35   37 1    
    70   35   97 1    
    71   36   98 1    
    72   36   99 1    
    73   36  100 1    
    74   37   38 am   BACKBONE|DICT|INTERRES
    75   37  101 1    
    76   38   39 2    
    77   38   40 1    
    78   40   41 1    
    79   40   42 1    
    80   40  102 1    
    81   41  103 1    
    82   41  104 1    
    83   41  105 1    
    84   42   43 am   BACKBONE|DICT|INTERRES
    85   42  106 1    
    86   43   44 2    
    87   43   45 1    
    88   45   46 1    
    89   45   49 1    
    90   45  107 1    
    91   46   47 1    
    92   46  108 1    
    93   46  109 1    
    94   47   48 1    
    95   48  110 1    
    96   48  111 1    
    97   49   50 am   BACKBONE|DICT|INTERRES
    98   49  112 1    
    99   50   51 2    
   100   50   52 1    
   101   52   53 1    
   102   52   54 1    
   103   52  113 1    
   104   53  114 1    
   105   53  115 1    
   106   53  116 1    
   107   54   55 am   BACKBONE|DICT|INTERRES
   108   54  117 1    
   109   55   56 2    
   110   55   57 1    
   111   57   58 1    
   112   57   59 1    
   113   57  118 1    
   114   58  119 1    
   115   58  120 1    
   116   58  121 1    
   117   59   60 am   BACKBONE|DICT|INTERRES
   118   59  122 1    
   119   60   61 2    
   120   60   62 1    
   121   62   63 1    
   122   62   64 1    
   123   62  123 1    
   124   63  124 1    
   125   63  125 1    
   126   63  126 1    
   127   64   65 am   BACKBONE|DICT|INTERRES
   128   64  127 1    
   129   65   66 2    
@<TRIPOS>SUBSTRUCTURE
     1 UNK         1 GROUP             0       ****    0 ROOT    
