@<TRIPOS>MOLECULE
3R135
127   129    1
SMALL
USER_CHARGES


@<TRIPOS>ATOM
      1 CA        -83.6898   27.9360  -70.7189 C.3       0 UNK        -0.1998 
      2 C         -82.7433   27.8241  -71.9042 C.2       0 UNK         0.4909 
      3 O         -81.6506   27.2824  -71.7500 O.2       0 UNK        -0.5240 
      4 N         -83.1731   28.3235  -73.0726 N.am      1 UNK        -0.4739 
      5 CA        -82.5097   28.4043  -74.3887 C.3       1 UNK         0.0864 
      6 C6        -81.4243   29.5153  -74.4931 C.3       11 UNK        -0.0881 
      7 S7        -79.7604   29.1051  -73.8667 S.3       11 UNK        -0.2682 
      8 C8        -79.7209   30.0192  -72.2900 C.3       11 UNK         0.0289 
      9 C9        -78.4908   29.6360  -71.4827 C.ar      11 UNK        -0.0687 
     10 C10       -78.3464   28.3228  -71.0284 C.ar      11 UNK        -0.0823 
     11 C11       -77.1700   27.9118  -70.3951 C.ar      11 UNK        -0.0830 
     12 C12       -76.1745   28.8561  -70.1284 C.ar      11 UNK        -0.1021 
     13 C13       -76.3248   30.1848  -70.5377 C.ar      11 UNK        -0.0753 
     14 C14       -77.4810   30.5679  -71.2256 C.ar      11 UNK        -0.0933 
     15 C15       -75.2310   31.2001  -70.2402 C.3       11 UNK         0.0166 
     16 S16       -73.6983   30.8556  -71.1619 S.3       11 UNK        -0.2615 
     17 C17       -74.1814   31.2460  -72.8814 C.3       11 UNK        -0.0865 
     18 CA        -74.0444   30.0376  -73.8573 C.3       10 UNK         0.0862 
     19 C         -74.5285   30.3885  -75.2987 C.2       10 UNK         0.5551 
     20 N         -73.8845   29.9077  -76.3562 N.am      10 UNK        -0.7319 
     21 O         -75.5194   31.0954  -75.4644 O.2       10 UNK        -0.5018 
     22 N         -72.7226   29.3853  -73.8127 N.am      10 UNK        -0.4509 
     23 C         -71.5421   29.9630  -74.0778 C.2       10 UNK         0.4899 
     24 O         -71.3943   31.1602  -74.3248 O.2       10 UNK        -0.4839 
     25 CA        -70.3034   29.0474  -74.0898 C.3       9 UNK         0.0222 
     26 CB        -69.6024   29.0847  -72.7219 C.3       9 UNK        -0.1966 
     27 N         -70.5739   27.6517  -74.4575 N.am      9 UNK        -0.4218 
     28 C         -71.1038   27.2390  -75.6183 C.2       9 UNK         0.5020 
     29 O         -71.4554   28.0108  -76.5143 O.2       9 UNK        -0.5274 
     30 CA        -71.2539   25.7182  -75.8098 C.3       8 UNK         0.0270 
     31 CB        -71.5059   24.9593  -74.4900 C.3       8 UNK        -0.1976 
     32 N         -72.3667   25.4505  -76.7175 N.am      8 UNK        -0.4313 
     33 C         -72.2664   24.9888  -77.9698 C.2       8 UNK         0.5041 
     34 O         -71.1956   24.6913  -78.5032 O.2       8 UNK        -0.5577 
     35 CA        -73.5704   24.7949  -78.7704 C.3       7 UNK         0.0284 
     36 CB        -73.8525   23.2968  -78.9747 C.3       7 UNK        -0.1958 
     37 N         -74.7428   25.4128  -78.1462 N.am      7 UNK        -0.4454 
     38 C         -75.0132   26.7248  -78.1455 C.2       7 UNK         0.5089 
     39 O         -74.3532   27.5602  -78.7629 O.2       7 UNK        -0.5125 
     40 CA        -76.2089   27.1854  -77.2912 C.3       6 UNK         0.0408 
     41 CB        -77.4979   27.1896  -78.1254 C.3       6 UNK        -0.1791 
     42 N         -76.4130   26.3863  -76.0776 N.am      6 UNK        -0.4762 
     43 C         -75.5283   26.2656  -75.0746 C.2       6 UNK         0.5007 
     44 O         -74.4183   26.7954  -75.0697 O.2       6 UNK        -0.5032 
     45 CA        -75.9447   25.3888  -73.8825 C.3       5 UNK         0.0783 
     46 C46       -76.8733   26.1915  -72.9490 C.3       11 UNK        -0.0857 
     47 S47       -77.3674   25.2899  -71.4354 S.3       11 UNK        -0.2512 
     48 C48       -76.9280   26.4385  -70.0732 C.3       11 UNK         0.0225 
     49 N         -76.5447   24.1422  -74.3573 N.am      5 UNK        -0.4615 
     50 C         -75.8369   23.1009  -74.8145 C.2       4 UNK         0.5053 
     51 O         -74.6072   23.0529  -74.8072 O.2       4 UNK        -0.5105 
     52 CA        -76.6299   21.9191  -75.3991 C.3       4 UNK         0.0263 
     53 CB        -76.9779   20.9074  -74.2956 C.3       4 UNK        -0.1981 
     54 N         -77.8564   22.3299  -76.0870 N.am      4 UNK        -0.4224 
     55 C         -77.8942   23.0876  -77.1929 C.2       3 UNK         0.4895 
     56 O         -76.8934   23.4944  -77.7808 O.2       3 UNK        -0.5091 
     57 CA        -79.2852   23.4989  -77.7034 C.3       3 UNK         0.0250 
     58 CB        -79.8414   22.4360  -78.6641 C.3       3 UNK        -0.1996 
     59 N         -80.2549   23.7499  -76.6317 N.am      3 UNK        -0.4254 
     60 C         -80.1220   24.6816  -75.6766 C.2       2 UNK         0.5004 
     61 O         -79.1367   25.4152  -75.5625 O.2       2 UNK        -0.5226 
     62 CA        -81.2481   24.7406  -74.6328 C.3       2 UNK         0.0269 
     63 CB        -80.8400   23.9587  -73.3736 C.3       2 UNK        -0.1926 
     64 N         -81.6012   26.1055  -74.2436 N.am      2 UNK        -0.4687 
     65 C         -82.1106   27.0541  -75.0376 C.2       1 UNK         0.5165 
     66 O         -82.3316   26.8814  -76.2379 O.2       1 UNK        -0.5079 
     67 H67       -83.9337   26.9439  -70.3400 H         1 UNK         0.0900 
     68 H68       -84.6209   28.4373  -70.9827 H         1 UNK         0.0900 
     69 H69       -83.2167   28.5003  -69.9158 H         1 UNK         0.0900 
     70 H70       -84.1067   28.7108  -73.0805 H         1 UNK         0.2959 
     71 H71       -83.3227   28.7549  -75.0275 H         1 UNK         0.1079 
     72 H72       -81.2994   29.7861  -75.5430 H         1 UNK         0.0837 
     73 H73       -81.7785   30.4260  -74.0078 H         1 UNK         0.0837 
     74 H74       -79.7351   31.0902  -72.4971 H         1 UNK         0.0685 
     75 H75       -80.6146   29.8019  -71.7058 H         1 UNK         0.0685 
     76 H76       -79.1196   27.5987  -71.2472 H         1 UNK         0.1434 
     77 H77       -75.2624   28.5550  -69.6310 H         1 UNK         0.1329 
     78 H78       -77.5901   31.5872  -71.5699 H         1 UNK         0.1335 
     79 H79       -75.0090   31.1771  -69.1724 H         1 UNK         0.0680 
     80 H80       -75.5650   32.2154  -70.4599 H         1 UNK         0.0680 
     81 H81       -73.5746   32.0856  -73.2229 H         1 UNK         0.1032 
     82 H82       -75.2094   31.6116  -72.8854 H         1 UNK         0.1032 
     83 H83       -74.7438   29.2744  -73.5132 H         1 UNK         0.0461 
     84 H84       -74.2140   30.1295  -77.2812 H         1 UNK         0.3453 
     85 H85       -73.0886   29.2902  -76.2438 H         1 UNK         0.3453 
     86 H86       -72.7432   28.3863  -73.6696 H         1 UNK         0.2984 
     87 H87       -69.6137   29.4484  -74.8354 H         1 UNK         0.0554 
     88 H88       -68.6660   28.5267  -72.7368 H         1 UNK         0.0847 
     89 H89       -70.2320   28.6689  -71.9340 H         1 UNK         0.0847 
     90 H90       -69.3607   30.1095  -72.4357 H         1 UNK         0.0847 
     91 H91       -70.3169   26.9502  -73.7783 H         1 UNK         0.3141 
     92 H92       -70.3178   25.3560  -76.2389 H         1 UNK         0.0743 
     93 H93       -70.6358   24.9907  -73.8337 H         1 UNK         0.0784 
     94 H94       -72.3558   25.3671  -73.9413 H         1 UNK         0.0784 
     95 H95       -71.7171   23.9062  -74.6793 H         1 UNK         0.0784 
     96 H96       -73.2721   25.7659  -76.3856 H         1 UNK         0.3213 
     97 H97       -73.4200   25.2522  -79.7507 H         1 UNK         0.0855 
     98 H98       -73.0130   22.8009  -79.4637 H         1 UNK         0.0814 
     99 H99       -74.7301   23.1406  -79.6023 H         1 UNK         0.0814 
    100 H100      -74.0258   22.7885  -78.0250 H         1 UNK         0.0814 
    101 H101      -75.4037   24.7847  -77.6964 H         1 UNK         0.3105 
    102 H102      -76.0149   28.2098  -76.9710 H         1 UNK         0.0547 
    103 H103      -77.4089   27.8700  -78.9731 H         1 UNK         0.0837 
    104 H104      -77.7174   26.2006  -78.5259 H         1 UNK         0.0837 
    105 H105      -78.3557   27.5140  -77.5355 H         1 UNK         0.0837 
    106 H106      -77.3245   25.9460  -75.9717 H         1 UNK         0.3020 
    107 H107      -75.0374   25.1468  -73.3235 H         1 UNK         0.1245 
    108 H108      -76.3672   27.1185  -72.6784 H         1 UNK         0.0781 
    109 H109      -77.7864   26.4907  -73.4680 H         1 UNK         0.0781 
    110 H110      -75.8788   26.2744  -69.8230 H         1 UNK         0.0836 
    111 H111      -77.5014   26.1699  -69.1853 H         1 UNK         0.0836 
    112 H112      -77.5521   24.1318  -74.4333 H         1 UNK         0.3022 
    113 H113      -75.9883   21.4232  -76.1308 H         1 UNK         0.0747 
    114 H114      -77.4680   20.0243  -74.7059 H         1 UNK         0.0793 
    115 H115      -76.0775   20.5667  -73.7822 H         1 UNK         0.0793 
    116 H116      -77.6377   21.3406  -73.5425 H         1 UNK         0.0793 
    117 H117      -78.7313   22.0386  -75.6768 H         1 UNK         0.3047 
    118 H118      -79.1697   24.4293  -78.2608 H         1 UNK         0.0822 
    119 H119      -80.7822   22.7579  -79.1112 H         1 UNK         0.0807 
    120 H120      -80.0159   21.4844  -78.1604 H         1 UNK         0.0807 
    121 H121      -79.1446   22.2483  -79.4825 H         1 UNK         0.0807 
    122 H122      -81.0889   23.1801  -76.6420 H         1 UNK         0.2946 
    123 H123      -82.1444   24.2819  -75.0558 H         1 UNK         0.1144 
    124 H124      -81.6473   23.9371  -72.6413 H         1 UNK         0.0793 
    125 H125      -79.9672   24.4030  -72.8929 H         1 UNK         0.0793 
    126 H126      -80.5917   22.9238  -73.6125 H         1 UNK         0.0793 
    127 H127      -81.4391   26.3704  -73.2732 H         1 UNK         0.2896 
@<TRIPOS>BOND
     1    1    2 1    
     2    1   67 1    
     3    1   68 1    
     4    1   69 1    
     5    2    3 2    
     6    2    4 am   BACKBONE|DICT|INTERRES
     7    4    5 1    
     8    4   70 1    
     9    5    6 1    
    10    5   65 1    
    11    5   71 1    
    12    6    7 1    
    13    6   72 1    
    14    6   73 1    
    15    7    8 1    
    16    8    9 1    
    17    8   74 1    
    18    8   75 1    
    19    9   10 ar   
    20    9   14 ar   
    21   10   11 ar   
    22   10   76 1    
    23   11   12 ar   
    24   11   48 1    
    25   12   13 ar   
    26   12   77 1    
    27   13   14 ar   
    28   13   15 1    
    29   14   78 1    
    30   15   16 1    
    31   15   79 1    
    32   15   80 1    
    33   16   17 1    
    34   17   18 1    
    35   17   81 1    
    36   17   82 1    
    37   18   19 1    
    38   18   22 1    
    39   18   83 1    
    40   19   20 am   BACKBONE|DICT|INTERRES
    41   19   21 2    
    42   20   84 1    
    43   20   85 1    
    44   22   23 am   BACKBONE|DICT|INTERRES
    45   22   86 1    
    46   23   24 2    
    47   23   25 1    
    48   25   26 1    
    49   25   27 1    
    50   25   87 1    
    51   26   88 1    
    52   26   89 1    
    53   26   90 1    
    54   27   28 am   BACKBONE|DICT|INTERRES
    55   27   91 1    
    56   28   29 2    
    57   28   30 1    
    58   30   31 1    
    59   30   32 1    
    60   30   92 1    
    61   31   93 1    
    62   31   94 1    
    63   31   95 1    
    64   32   33 am   BACKBONE|DICT|INTERRES
    65   32   96 1    
    66   33   34 2    
    67   33   35 1    
    68   35   36 1    
    69   35   37 1    
    70   35   97 1    
    71   36   98 1    
    72   36   99 1    
    73   36  100 1    
    74   37   38 am   BACKBONE|DICT|INTERRES
    75   37  101 1    
    76   38   39 2    
    77   38   40 1    
    78   40   41 1    
    79   40   42 1    
    80   40  102 1    
    81   41  103 1    
    82   41  104 1    
    83   41  105 1    
    84   42   43 am   BACKBONE|DICT|INTERRES
    85   42  106 1    
    86   43   44 2    
    87   43   45 1    
    88   45   46 1    
    89   45   49 1    
    90   45  107 1    
    91   46   47 1    
    92   46  108 1    
    93   46  109 1    
    94   47   48 1    
    95   48  110 1    
    96   48  111 1    
    97   49   50 am   BACKBONE|DICT|INTERRES
    98   49  112 1    
    99   50   51 2    
   100   50   52 1    
   101   52   53 1    
   102   52   54 1    
   103   52  113 1    
   104   53  114 1    
   105   53  115 1    
   106   53  116 1    
   107   54   55 am   BACKBONE|DICT|INTERRES
   108   54  117 1    
   109   55   56 2    
   110   55   57 1    
   111   57   58 1    
   112   57   59 1    
   113   57  118 1    
   114   58  119 1    
   115   58  120 1    
   116   58  121 1    
   117   59   60 am   BACKBONE|DICT|INTERRES
   118   59  122 1    
   119   60   61 2    
   120   60   62 1    
   121   62   63 1    
   122   62   64 1    
   123   62  123 1    
   124   63  124 1    
   125   63  125 1    
   126   63  126 1    
   127   64   65 am   BACKBONE|DICT|INTERRES
   128   64  127 1    
   129   65   66 2    
@<TRIPOS>SUBSTRUCTURE
     1 UNK         1 GROUP             0       ****    0 ROOT    
