@<TRIPOS>MOLECULE
3R135
127   129    1
SMALL
USER_CHARGES


@<TRIPOS>ATOM
      1 CA        -83.2165   27.0619  -69.6391 C.3       0 UNK        -0.1998 
      2 C         -82.5826   27.1265  -71.0200 C.2       0 UNK         0.4909 
      3 O         -81.3712   26.9465  -71.1427 O.2       0 UNK        -0.5240 
      4 N         -83.3945   27.3695  -72.0596 N.am      1 UNK        -0.4739 
      5 CA        -83.0350   27.4890  -73.4832 C.3       1 UNK         0.0864 
      6 C6        -82.0761   28.6934  -73.7787 C.3       11 UNK        -0.0881 
      7 S7        -80.8572   28.5100  -75.1328 S.3       11 UNK        -0.2682 
      8 C8        -79.7557   29.9370  -74.8445 C.3       11 UNK         0.0289 
      9 C9        -78.7918   29.8403  -73.6576 C.ar      11 UNK        -0.0687 
     10 C10       -78.7440   28.7464  -72.7792 C.ar      11 UNK        -0.0823 
     11 C11       -77.8564   28.7391  -71.6974 C.ar      11 UNK        -0.0830 
     12 C12       -77.0052   29.8263  -71.4971 C.ar      11 UNK        -0.1021 
     13 C13       -77.0166   30.9065  -72.3797 C.ar      11 UNK        -0.0753 
     14 C14       -77.9155   30.9107  -73.4490 C.ar      11 UNK        -0.0933 
     15 C15       -76.0487   32.0621  -72.1834 C.3       11 UNK         0.0166 
     16 S16       -74.5226   31.8155  -73.1429 S.3       11 UNK        -0.2615 
     17 C17       -73.7701   30.4000  -72.2663 C.3       11 UNK        -0.0865 
     18 CA        -72.3112   30.1529  -72.7177 C.3       10 UNK         0.0862 
     19 C         -71.6171   29.1022  -71.8125 C.2       10 UNK         0.5551 
     20 N         -70.9584   29.5430  -70.7495 N.am      10 UNK        -0.7319 
     21 O         -71.7023   27.8968  -72.0376 O.2       10 UNK        -0.5018 
     22 N         -72.2622   29.7490  -74.1264 N.am      10 UNK        -0.4509 
     23 C         -71.2639   30.0335  -74.9678 C.2       10 UNK         0.4899 
     24 O         -70.2870   30.7251  -74.6732 O.2       10 UNK        -0.4839 
     25 CA        -71.3978   29.4325  -76.3775 C.3       9 UNK         0.0222 
     26 CB        -70.1957   29.7436  -77.2953 C.3       9 UNK        -0.1966 
     27 N         -71.6749   27.9928  -76.3330 N.am      9 UNK        -0.4218 
     28 C         -70.8880   27.0251  -75.8314 C.2       9 UNK         0.5020 
     29 O         -69.7721   27.2286  -75.3501 O.2       9 UNK        -0.5274 
     30 CA        -71.4147   25.5751  -75.8673 C.3       8 UNK         0.0270 
     31 CB        -71.7193   25.0794  -74.4435 C.3       8 UNK        -0.1976 
     32 N         -72.6016   25.3857  -76.7062 N.am      8 UNK        -0.4313 
     33 C         -72.6260   25.4920  -78.0418 C.2       8 UNK         0.5041 
     34 O         -71.6214   25.6697  -78.7316 O.2       8 UNK        -0.5577 
     35 CA        -74.0029   25.4317  -78.7254 C.3       7 UNK         0.0284 
     36 CB        -74.3166   23.9935  -79.1658 C.3       7 UNK        -0.1958 
     37 N         -75.1047   25.9524  -77.9050 N.am      7 UNK        -0.4454 
     38 C         -75.2080   27.2148  -77.4595 C.2       7 UNK         0.5089 
     39 O         -74.3597   28.0830  -77.6655 O.2       7 UNK        -0.5125 
     40 CA        -76.4429   27.5555  -76.6053 C.3       6 UNK         0.0408 
     41 CB        -77.7056   27.6456  -77.4759 C.3       6 UNK        -0.1791 
     42 N         -76.6487   26.5904  -75.5245 N.am      6 UNK        -0.4762 
     43 C         -75.7992   26.4090  -74.5011 C.2       6 UNK         0.5007 
     44 O         -74.7992   27.1038  -74.3118 O.2       6 UNK        -0.5032 
     45 CA        -76.0699   25.1934  -73.5898 C.3       5 UNK         0.0783 
     46 C46       -77.0933   25.4924  -72.4702 C.3       11 UNK        -0.0857 
     47 S47       -76.4085   26.4608  -71.0905 S.3       11 UNK        -0.2512 
     48 C48       -77.8080   27.5674  -70.7297 C.3       11 UNK         0.0225 
     49 N         -76.5017   24.0344  -74.3741 N.am      5 UNK        -0.4615 
     50 C         -75.7220   23.3284  -75.2016 C.2       4 UNK         0.5053 
     51 O         -74.5292   23.5635  -75.3842 O.2       4 UNK        -0.5105 
     52 CA        -76.3979   22.1835  -75.9762 C.3       4 UNK         0.0263 
     53 CB        -76.3860   20.8914  -75.1445 C.3       4 UNK        -0.1981 
     54 N         -77.7736   22.4985  -76.3726 N.am      4 UNK        -0.4224 
     55 C         -78.1038   23.4534  -77.2539 C.2       3 UNK         0.4895 
     56 O         -77.2810   24.1351  -77.8620 O.2       3 UNK        -0.5091 
     57 CA        -79.6019   23.7299  -77.4593 C.3       3 UNK         0.0250 
     58 CB        -80.1772   22.8051  -78.5435 C.3       3 UNK        -0.1996 
     59 N         -80.4029   23.6145  -76.2352 N.am      3 UNK        -0.4254 
     60 C         -80.2253   24.3583  -75.1343 C.2       2 UNK         0.5004 
     61 O         -79.3109   25.1745  -74.9978 O.2       2 UNK        -0.5226 
     62 CA        -81.2027   24.1160  -73.9737 C.3       2 UNK         0.0269 
     63 CB        -80.5076   23.3779  -72.8190 C.3       2 UNK        -0.1926 
     64 N         -81.7441   25.3798  -73.4779 N.am      2 UNK        -0.4687 
     65 C         -82.6483   26.1296  -74.1192 C.2       1 UNK         0.5165 
     66 O         -83.2013   25.7719  -75.1616 O.2       1 UNK        -0.5079 
     67 H67       -82.7688   27.8114  -68.9872 H         1 UNK         0.0900 
     68 H68       -83.0486   26.0807  -69.1959 H         1 UNK         0.0900 
     69 H69       -84.2911   27.2401  -69.6735 H         1 UNK         0.0900 
     70 H70       -84.3832   27.4714  -71.8742 H         1 UNK         0.2959 
     71 H71       -83.9781   27.7411  -73.9720 H         1 UNK         0.1079 
     72 H72       -81.5187   28.9592  -72.8814 H         1 UNK         0.0837 
     73 H73       -82.6759   29.5788  -73.9947 H         1 UNK         0.0837 
     74 H74       -79.1657   30.0848  -75.7501 H         1 UNK         0.0685 
     75 H75       -80.3705   30.8311  -74.7312 H         1 UNK         0.0685 
     76 H76       -79.3974   27.8977  -72.9216 H         1 UNK         0.1434 
     77 H77       -76.3151   29.8185  -70.6645 H         1 UNK         0.1329 
     78 H78       -77.9273   31.7526  -74.1280 H         1 UNK         0.1335 
     79 H79       -75.8041   32.1855  -71.1271 H         1 UNK         0.0680 
     80 H80       -76.5176   32.9953  -72.4990 H         1 UNK         0.0680 
     81 H81       -74.3754   29.5069  -72.4375 H         1 UNK         0.1032 
     82 H82       -73.8098   30.6021  -71.1941 H         1 UNK         0.1032 
     83 H83       -71.7695   31.0949  -72.6061 H         1 UNK         0.0461 
     84 H84       -70.8878   30.5288  -70.5501 H         1 UNK         0.3453 
     85 H85       -70.5124   28.8758  -70.1395 H         1 UNK         0.3453 
     86 H86       -72.9963   29.1236  -74.4292 H         1 UNK         0.2984 
     87 H87       -72.2776   29.8962  -76.8260 H         1 UNK         0.0554 
     88 H88       -70.3356   29.3178  -78.2888 H         1 UNK         0.0847 
     89 H89       -69.2611   29.3532  -76.8915 H         1 UNK         0.0847 
     90 H90       -70.0695   30.8198  -77.4185 H         1 UNK         0.0847 
     91 H91       -72.5795   27.7248  -76.7082 H         1 UNK         0.3141 
     92 H92       -70.6153   24.9553  -76.2783 H         1 UNK         0.0743 
     93 H93       -72.5291   25.6472  -73.9843 H         1 UNK         0.0784 
     94 H94       -72.0005   24.0263  -74.4395 H         1 UNK         0.0784 
     95 H95       -70.8468   25.1825  -73.7968 H         1 UNK         0.0784 
     96 H96       -73.4620   25.1410  -76.2267 H         1 UNK         0.3213 
     97 H97       -73.9457   26.0551  -79.6201 H         1 UNK         0.0855 
     98 H98       -74.4056   23.3235  -78.3109 H         1 UNK         0.0814 
     99 H99       -73.5272   23.6001  -79.8077 H         1 UNK         0.0814 
    100 H100      -75.2472   23.9441  -79.7312 H         1 UNK         0.0814 
    101 H101      -75.8744   25.3093  -77.7249 H         1 UNK         0.3105 
    102 H102      -76.2791   28.5336  -76.1476 H         1 UNK         0.0547 
    103 H103      -77.5976   28.4185  -78.2376 H         1 UNK         0.0837 
    104 H104      -77.9177   26.7091  -77.9908 H         1 UNK         0.0837 
    105 H105      -78.5799   27.8980  -76.8788 H         1 UNK         0.0837 
    106 H106      -77.4737   26.0010  -75.5764 H         1 UNK         0.3020 
    107 H107      -75.1187   24.9272  -73.1223 H         1 UNK         0.1245 
    108 H108      -77.4407   24.5564  -72.0309 H         1 UNK         0.0781 
    109 H109      -77.9820   25.9767  -72.8758 H         1 UNK         0.0781 
    110 H110      -77.7055   27.9432  -69.7106 H         1 UNK         0.0836 
    111 H111      -78.7416   27.0037  -70.7491 H         1 UNK         0.0836 
    112 H112      -77.4892   23.8256  -74.3469 H         1 UNK         0.3022 
    113 H113      -75.8177   22.0082  -76.8841 H         1 UNK         0.0747 
    114 H114      -76.7892   20.0514  -75.7104 H         1 UNK         0.0793 
    115 H115      -75.3685   20.6251  -74.8542 H         1 UNK         0.0793 
    116 H116      -76.9701   20.9921  -74.2288 H         1 UNK         0.0793 
    117 H117      -78.5144   21.9792  -75.9247 H         1 UNK         0.3047 
    118 H118      -79.6931   24.7607  -77.8086 H         1 UNK         0.0822 
    119 H119      -81.2104   23.0622  -78.7776 H         1 UNK         0.0807 
    120 H120      -80.1511   21.7578  -78.2396 H         1 UNK         0.0807 
    121 H121      -79.6074   22.8897  -79.4702 H         1 UNK         0.0807 
    122 H122      -81.1725   22.9608  -76.2629 H         1 UNK         0.2946 
    123 H123      -82.0331   23.5003  -74.3268 H         1 UNK         0.1144 
    124 H124      -79.7157   23.9807  -72.3755 H         1 UNK         0.0793 
    125 H125      -80.0603   22.4431  -73.1595 H         1 UNK         0.0793 
    126 H126      -81.2156   23.1289  -72.0283 H         1 UNK         0.0793 
    127 H127      -81.3377   25.7692  -72.6315 H         1 UNK         0.2896 
@<TRIPOS>BOND
     1    1    2 1    
     2    1   67 1    
     3    1   68 1    
     4    1   69 1    
     5    2    3 2    
     6    2    4 am   BACKBONE|DICT|INTERRES
     7    4    5 1    
     8    4   70 1    
     9    5    6 1    
    10    5   65 1    
    11    5   71 1    
    12    6    7 1    
    13    6   72 1    
    14    6   73 1    
    15    7    8 1    
    16    8    9 1    
    17    8   74 1    
    18    8   75 1    
    19    9   10 ar   
    20    9   14 ar   
    21   10   11 ar   
    22   10   76 1    
    23   11   12 ar   
    24   11   48 1    
    25   12   13 ar   
    26   12   77 1    
    27   13   14 ar   
    28   13   15 1    
    29   14   78 1    
    30   15   16 1    
    31   15   79 1    
    32   15   80 1    
    33   16   17 1    
    34   17   18 1    
    35   17   81 1    
    36   17   82 1    
    37   18   19 1    
    38   18   22 1    
    39   18   83 1    
    40   19   20 am   BACKBONE|DICT|INTERRES
    41   19   21 2    
    42   20   84 1    
    43   20   85 1    
    44   22   23 am   BACKBONE|DICT|INTERRES
    45   22   86 1    
    46   23   24 2    
    47   23   25 1    
    48   25   26 1    
    49   25   27 1    
    50   25   87 1    
    51   26   88 1    
    52   26   89 1    
    53   26   90 1    
    54   27   28 am   BACKBONE|DICT|INTERRES
    55   27   91 1    
    56   28   29 2    
    57   28   30 1    
    58   30   31 1    
    59   30   32 1    
    60   30   92 1    
    61   31   93 1    
    62   31   94 1    
    63   31   95 1    
    64   32   33 am   BACKBONE|DICT|INTERRES
    65   32   96 1    
    66   33   34 2    
    67   33   35 1    
    68   35   36 1    
    69   35   37 1    
    70   35   97 1    
    71   36   98 1    
    72   36   99 1    
    73   36  100 1    
    74   37   38 am   BACKBONE|DICT|INTERRES
    75   37  101 1    
    76   38   39 2    
    77   38   40 1    
    78   40   41 1    
    79   40   42 1    
    80   40  102 1    
    81   41  103 1    
    82   41  104 1    
    83   41  105 1    
    84   42   43 am   BACKBONE|DICT|INTERRES
    85   42  106 1    
    86   43   44 2    
    87   43   45 1    
    88   45   46 1    
    89   45   49 1    
    90   45  107 1    
    91   46   47 1    
    92   46  108 1    
    93   46  109 1    
    94   47   48 1    
    95   48  110 1    
    96   48  111 1    
    97   49   50 am   BACKBONE|DICT|INTERRES
    98   49  112 1    
    99   50   51 2    
   100   50   52 1    
   101   52   53 1    
   102   52   54 1    
   103   52  113 1    
   104   53  114 1    
   105   53  115 1    
   106   53  116 1    
   107   54   55 am   BACKBONE|DICT|INTERRES
   108   54  117 1    
   109   55   56 2    
   110   55   57 1    
   111   57   58 1    
   112   57   59 1    
   113   57  118 1    
   114   58  119 1    
   115   58  120 1    
   116   58  121 1    
   117   59   60 am   BACKBONE|DICT|INTERRES
   118   59  122 1    
   119   60   61 2    
   120   60   62 1    
   121   62   63 1    
   122   62   64 1    
   123   62  123 1    
   124   63  124 1    
   125   63  125 1    
   126   63  126 1    
   127   64   65 am   BACKBONE|DICT|INTERRES
   128   64  127 1    
   129   65   66 2    
@<TRIPOS>SUBSTRUCTURE
     1 UNK         1 GROUP             0       ****    0 ROOT    
