@<TRIPOS>MOLECULE
3R135
127   129    1
SMALL
USER_CHARGES


@<TRIPOS>ATOM
      1 CA        -84.0752   27.2944  -71.1161 C.3       0 UNK        -0.1998 
      2 C         -83.6660   27.6791  -72.5298 C.2       0 UNK         0.4909 
      3 O         -84.5132   27.7242  -73.4222 O.2       0 UNK        -0.5240 
      4 N         -82.3727   27.9581  -72.7382 N.am      1 UNK        -0.4739 
      5 CA        -81.7940   28.3292  -74.0372 C.3       1 UNK         0.0864 
      6 C6        -80.4042   28.9917  -73.8758 C.3       11 UNK        -0.0881 
      7 S7        -80.5055   30.6294  -73.0683 S.3       11 UNK        -0.2682 
      8 C8        -80.1531   30.2728  -71.3133 C.3       11 UNK         0.0289 
      9 C9        -78.7617   29.6933  -71.1079 C.ar      11 UNK        -0.0687 
     10 C10       -78.6031   28.3426  -70.7834 C.ar      11 UNK        -0.0823 
     11 C11       -77.3262   27.7896  -70.6536 C.ar      11 UNK        -0.0830 
     12 C12       -76.2045   28.6090  -70.8140 C.ar      11 UNK        -0.1021 
     13 C13       -76.3487   29.9647  -71.1230 C.ar      11 UNK        -0.0753 
     14 C14       -77.6318   30.5028  -71.2610 C.ar      11 UNK        -0.0933 
     15 C15       -75.1211   30.8438  -71.3182 C.3       11 UNK         0.0166 
     16 S16       -74.8995   31.2997  -73.0667 S.3       11 UNK        -0.2615 
     17 C17       -73.3037   32.1911  -73.0033 C.3       11 UNK        -0.0865 
     18 CA        -72.2489   31.6258  -74.0043 C.3       10 UNK         0.0862 
     19 C         -70.9147   32.4350  -74.0382 C.2       10 UNK         0.5551 
     20 N         -70.9649   33.7546  -73.9071 N.am      10 UNK        -0.7319 
     21 O         -69.8298   31.8895  -74.2355 O.2       10 UNK        -0.5018 
     22 N         -72.0499   30.1752  -73.8599 N.am      10 UNK        -0.4509 
     23 C         -71.5477   29.5283  -72.8049 C.2       10 UNK         0.4899 
     24 O         -71.1440   30.0872  -71.7843 O.2       10 UNK        -0.4839 
     25 CA        -71.5176   27.9883  -72.8655 C.3       9 UNK         0.0222 
     26 CB        -72.8780   27.4139  -72.4288 C.3       9 UNK        -0.1966 
     27 N         -71.0793   27.3697  -74.1283 N.am      9 UNK        -0.4218 
     28 C         -71.6209   27.4283  -75.3549 C.2       9 UNK         0.5020 
     29 O         -72.5297   28.1957  -75.6773 O.2       9 UNK        -0.5274 
     30 CA        -71.0712   26.4518  -76.4083 C.3       8 UNK         0.0270 
     31 CB        -70.0780   25.4011  -75.8584 C.3       8 UNK        -0.1976 
     32 N         -72.2105   25.7896  -77.0408 N.am      8 UNK        -0.4313 
     33 C         -72.2147   25.2359  -78.2606 C.2       8 UNK         0.5041 
     34 O         -71.2197   25.1816  -78.9857 O.2       8 UNK        -0.5577 
     35 CA        -73.5407   24.6365  -78.7769 C.3       7 UNK         0.0284 
     36 CB        -73.5484   23.1116  -78.5804 C.3       7 UNK        -0.1958 
     37 N         -74.7386   25.2010  -78.1509 N.am      7 UNK        -0.4454 
     38 C         -75.1158   26.4842  -78.2234 C.2       7 UNK         0.5089 
     39 O         -74.5695   27.3143  -78.9510 O.2       7 UNK        -0.5125 
     40 CA        -76.2792   26.9354  -77.3204 C.3       6 UNK         0.0408 
     41 CB        -77.5589   27.1291  -78.1479 C.3       6 UNK        -0.1791 
     42 N         -76.5759   26.0659  -76.1745 N.am      6 UNK        -0.4762 
     43 C         -75.7302   25.7376  -75.1840 C.2       6 UNK         0.5007 
     44 O         -74.5242   25.9721  -75.1963 O.2       6 UNK        -0.5032 
     45 CA        -76.3442   25.0080  -73.9803 C.3       5 UNK         0.0783 
     46 C46       -77.2946   25.9611  -73.2183 C.3       11 UNK        -0.0857 
     47 S47       -77.9465   25.2548  -71.6675 S.3       11 UNK        -0.2512 
     48 C48       -77.1506   26.2967  -70.3930 C.3       11 UNK         0.0225 
     49 N         -77.0028   23.7899  -74.4474 N.am      5 UNK        -0.4615 
     50 C         -76.3613   22.6421  -74.7043 C.2       4 UNK         0.5053 
     51 O         -75.1752   22.4464  -74.4392 O.2       4 UNK        -0.5105 
     52 CA        -77.1667   21.5244  -75.3918 C.3       4 UNK         0.0263 
     53 CB        -77.7731   20.5782  -74.3430 C.3       4 UNK        -0.1981 
     54 N         -78.2325   22.0258  -76.2629 N.am      4 UNK        -0.4224 
     55 C         -78.0446   22.7616  -77.3689 C.2       3 UNK         0.4895 
     56 O         -76.9382   23.0521  -77.8236 O.2       3 UNK        -0.5091 
     57 CA        -79.3112   23.3089  -78.0523 C.3       3 UNK         0.0250 
     58 CB        -79.8262   22.3138  -79.1043 C.3       3 UNK        -0.1996 
     59 N         -80.3949   23.6394  -77.1165 N.am      3 UNK        -0.4254 
     60 C         -80.3003   24.5216  -76.1108 C.2       2 UNK         0.5004 
     61 O         -79.2737   25.1529  -75.8504 O.2       2 UNK        -0.5226 
     62 CA        -81.5323   24.6488  -75.1993 C.3       2 UNK         0.0269 
     63 CB        -81.5521   23.4959  -74.1810 C.3       2 UNK        -0.1926 
     64 N         -81.5749   25.9143  -74.4627 N.am      2 UNK        -0.4687 
     65 C         -81.7274   27.1299  -75.0088 C.2       1 UNK         0.5165 
     66 O         -81.8494   27.3255  -76.2193 O.2       1 UNK        -0.5079 
     67 H67       -84.5070   26.2940  -71.1099 H         1 UNK         0.0900 
     68 H68       -84.8239   27.9912  -70.7400 H         1 UNK         0.0900 
     69 H69       -83.2293   27.3030  -70.4288 H         1 UNK         0.0900 
     70 H70       -81.7258   27.9123  -71.9660 H         1 UNK         0.2959 
     71 H71       -82.4613   29.0591  -74.5019 H         1 UNK         0.1079 
     72 H72       -79.9482   29.1557  -74.8544 H         1 UNK         0.0837 
     73 H73       -79.7168   28.3369  -73.3394 H         1 UNK         0.0837 
     74 H74       -80.2393   31.2004  -70.7457 H         1 UNK         0.0685 
     75 H75       -80.9180   29.6055  -70.9152 H         1 UNK         0.0685 
     76 H76       -79.4703   27.7074  -70.6685 H         1 UNK         0.1434 
     77 H77       -75.2163   28.1861  -70.7141 H         1 UNK         0.1329 
     78 H78       -77.7504   31.5472  -71.5159 H         1 UNK         0.1335 
     79 H79       -74.2240   30.3319  -70.9654 H         1 UNK         0.0680 
     80 H80       -75.2214   31.7490  -70.7175 H         1 UNK         0.0680 
     81 H81       -72.9060   32.1754  -71.9872 H         1 UNK         0.1032 
     82 H82       -73.5214   33.2370  -73.2226 H         1 UNK         0.1032 
     83 H83       -72.6622   31.7427  -75.0066 H         1 UNK         0.0461 
     84 H84       -71.8388   34.2395  -73.7807 H         1 UNK         0.3453 
     85 H85       -70.1053   34.2798  -73.9488 H         1 UNK         0.3453 
     86 H86       -72.3432   29.6009  -74.6493 H         1 UNK         0.2984 
     87 H87       -70.7817   27.6677  -72.1263 H         1 UNK         0.0554 
     88 H88       -72.8725   26.3239  -72.4289 H         1 UNK         0.0847 
     89 H89       -73.6868   27.7442  -73.0827 H         1 UNK         0.0847 
     90 H90       -73.1181   27.7369  -71.4164 H         1 UNK         0.0847 
     91 H91       -70.3010   26.7337  -74.0240 H         1 UNK         0.3141 
     92 H92       -70.5591   27.0589  -77.1576 H         1 UNK         0.0743 
     93 H93       -70.5362   24.7697  -75.0957 H         1 UNK         0.0784 
     94 H94       -69.7202   24.7447  -76.6519 H         1 UNK         0.0784 
     95 H95       -69.1947   25.8723  -75.4258 H         1 UNK         0.0784 
     96 H96       -73.0835   25.8515  -76.5176 H         1 UNK         0.3213 
     97 H97       -73.5966   24.8465  -79.8470 H         1 UNK         0.0855 
     98 H98       -73.5410   22.8422  -77.5232 H         1 UNK         0.0814 
     99 H99       -72.6733   22.6522  -79.0421 H         1 UNK         0.0814 
    100 H100      -74.4290   22.6576  -79.0353 H         1 UNK         0.0814 
    101 H101      -75.3008   24.5742  -77.5874 H         1 UNK         0.3105 
    102 H102      -75.9961   27.9056  -76.9074 H         1 UNK         0.0547 
    103 H103      -77.4023   27.8584  -78.9438 H         1 UNK         0.0837 
    104 H104      -77.8734   26.1989  -78.6188 H         1 UNK         0.0837 
    105 H105      -78.3837   27.4916  -77.5336 H         1 UNK         0.0837 
    106 H106      -77.5485   25.7769  -76.0786 H         1 UNK         0.3020 
    107 H107      -75.5265   24.7388  -73.3071 H         1 UNK         0.1245 
    108 H108      -78.1515   26.2411  -73.8315 H         1 UNK         0.0781 
    109 H109      -76.7749   26.8963  -73.0103 H         1 UNK         0.0781 
    110 H110      -76.0928   26.0338  -70.3426 H         1 UNK         0.0836 
    111 H111      -77.5745   26.0516  -69.4184 H         1 UNK         0.0836 
    112 H112      -77.9652   23.8961  -74.7410 H         1 UNK         0.3022 
    113 H113      -76.4721   20.9534  -76.0117 H         1 UNK         0.0747 
    114 H114      -78.2790   19.7347  -74.8133 H         1 UNK         0.0793 
    115 H115      -76.9978   20.1677  -73.6944 H         1 UNK         0.0793 
    116 H116      -78.4939   21.0909  -73.7045 H         1 UNK         0.0793 
    117 H117      -79.1810   21.8343  -75.9763 H         1 UNK         0.3047 
    118 H118      -79.0324   24.2288  -78.5671 H         1 UNK         0.0822 
    119 H119      -80.6626   22.7283  -79.6675 H         1 UNK         0.0807 
    120 H120      -80.1559   21.3782  -78.6509 H         1 UNK         0.0807 
    121 H121      -79.0440   22.0689  -79.8245 H         1 UNK         0.0807 
    122 H122      -81.2691   23.1521  -77.2543 H         1 UNK         0.2946 
    123 H123      -82.4279   24.5942  -75.8224 H         1 UNK         0.1144 
    124 H124      -80.6735   23.5148  -73.5339 H         1 UNK         0.0793 
    125 H125      -81.5700   22.5257  -74.6789 H         1 UNK         0.0793 
    126 H126      -82.4366   23.5437  -73.5452 H         1 UNK         0.0793 
    127 H127      -81.4721   25.8568  -73.4608 H         1 UNK         0.2896 
@<TRIPOS>BOND
     1    1    2 1    
     2    1   67 1    
     3    1   68 1    
     4    1   69 1    
     5    2    3 2    
     6    2    4 am   BACKBONE|DICT|INTERRES
     7    4    5 1    
     8    4   70 1    
     9    5    6 1    
    10    5   65 1    
    11    5   71 1    
    12    6    7 1    
    13    6   72 1    
    14    6   73 1    
    15    7    8 1    
    16    8    9 1    
    17    8   74 1    
    18    8   75 1    
    19    9   10 ar   
    20    9   14 ar   
    21   10   11 ar   
    22   10   76 1    
    23   11   12 ar   
    24   11   48 1    
    25   12   13 ar   
    26   12   77 1    
    27   13   14 ar   
    28   13   15 1    
    29   14   78 1    
    30   15   16 1    
    31   15   79 1    
    32   15   80 1    
    33   16   17 1    
    34   17   18 1    
    35   17   81 1    
    36   17   82 1    
    37   18   19 1    
    38   18   22 1    
    39   18   83 1    
    40   19   20 am   BACKBONE|DICT|INTERRES
    41   19   21 2    
    42   20   84 1    
    43   20   85 1    
    44   22   23 am   BACKBONE|DICT|INTERRES
    45   22   86 1    
    46   23   24 2    
    47   23   25 1    
    48   25   26 1    
    49   25   27 1    
    50   25   87 1    
    51   26   88 1    
    52   26   89 1    
    53   26   90 1    
    54   27   28 am   BACKBONE|DICT|INTERRES
    55   27   91 1    
    56   28   29 2    
    57   28   30 1    
    58   30   31 1    
    59   30   32 1    
    60   30   92 1    
    61   31   93 1    
    62   31   94 1    
    63   31   95 1    
    64   32   33 am   BACKBONE|DICT|INTERRES
    65   32   96 1    
    66   33   34 2    
    67   33   35 1    
    68   35   36 1    
    69   35   37 1    
    70   35   97 1    
    71   36   98 1    
    72   36   99 1    
    73   36  100 1    
    74   37   38 am   BACKBONE|DICT|INTERRES
    75   37  101 1    
    76   38   39 2    
    77   38   40 1    
    78   40   41 1    
    79   40   42 1    
    80   40  102 1    
    81   41  103 1    
    82   41  104 1    
    83   41  105 1    
    84   42   43 am   BACKBONE|DICT|INTERRES
    85   42  106 1    
    86   43   44 2    
    87   43   45 1    
    88   45   46 1    
    89   45   49 1    
    90   45  107 1    
    91   46   47 1    
    92   46  108 1    
    93   46  109 1    
    94   47   48 1    
    95   48  110 1    
    96   48  111 1    
    97   49   50 am   BACKBONE|DICT|INTERRES
    98   49  112 1    
    99   50   51 2    
   100   50   52 1    
   101   52   53 1    
   102   52   54 1    
   103   52  113 1    
   104   53  114 1    
   105   53  115 1    
   106   53  116 1    
   107   54   55 am   BACKBONE|DICT|INTERRES
   108   54  117 1    
   109   55   56 2    
   110   55   57 1    
   111   57   58 1    
   112   57   59 1    
   113   57  118 1    
   114   58  119 1    
   115   58  120 1    
   116   58  121 1    
   117   59   60 am   BACKBONE|DICT|INTERRES
   118   59  122 1    
   119   60   61 2    
   120   60   62 1    
   121   62   63 1    
   122   62   64 1    
   123   62  123 1    
   124   63  124 1    
   125   63  125 1    
   126   63  126 1    
   127   64   65 am   BACKBONE|DICT|INTERRES
   128   64  127 1    
   129   65   66 2    
@<TRIPOS>SUBSTRUCTURE
     1 UNK         1 GROUP             0       ****    0 ROOT    
