@<TRIPOS>MOLECULE
3R135
127   129    1
SMALL
USER_CHARGES


@<TRIPOS>ATOM
      1 CA        -79.2918   32.2372  -75.6406 C.3       0 UNK        -0.1998 
      2 C         -79.6513   30.8228  -75.2107 C.2       0 UNK         0.4909 
      3 O         -80.6732   30.2966  -75.6511 O.2       0 UNK        -0.5240 
      4 N         -78.8116   30.2169  -74.3598 N.am      1 UNK        -0.4739 
      5 CA        -78.9097   28.8490  -73.8323 C.3       1 UNK         0.0864 
      6 C6        -80.1264   28.6279  -72.8887 C.3       11 UNK        -0.0881 
      7 S7        -80.0539   29.6553  -71.3785 S.3       11 UNK        -0.2682 
      8 C8        -79.4959   28.4580  -70.1194 C.3       11 UNK         0.0289 
      9 C9        -77.9998   28.2057  -70.2245 C.ar      11 UNK        -0.0687 
     10 C10       -77.5115   27.2552  -71.1229 C.ar      11 UNK        -0.0823 
     11 C11       -76.1387   27.0948  -71.3127 C.ar      11 UNK        -0.0830 
     12 C12       -75.2458   27.8306  -70.5298 C.ar      11 UNK        -0.1021 
     13 C13       -75.7213   28.7612  -69.5991 C.ar      11 UNK        -0.0753 
     14 C14       -77.1000   28.9491  -69.4550 C.ar      11 UNK        -0.0933 
     15 C15       -74.7450   29.5972  -68.7842 C.3       11 UNK         0.0166 
     16 S16       -73.7119   30.6644  -69.8395 S.3       11 UNK        -0.2615 
     17 C17       -74.9535   31.7483  -70.6341 C.3       11 UNK        -0.0865 
     18 CA        -75.4835   31.2135  -71.9949 C.3       10 UNK         0.0862 
     19 C         -76.4279   32.2507  -72.6563 C.2       10 UNK         0.5551 
     20 N         -77.6795   32.3070  -72.2240 N.am      10 UNK        -0.7319 
     21 O         -76.0346   33.0219  -73.5286 O.2       10 UNK        -0.5018 
     22 N         -74.3898   30.7878  -72.8764 N.am      10 UNK        -0.4509 
     23 C         -74.5136   29.9956  -73.9455 C.2       10 UNK         0.4899 
     24 O         -75.5815   29.5193  -74.3457 O.2       10 UNK        -0.4839 
     25 CA        -73.1943   29.6640  -74.6567 C.3       9 UNK         0.0222 
     26 CB        -72.3281   28.7177  -73.8049 C.3       9 UNK        -0.1966 
     27 N         -73.4600   29.0242  -75.9398 N.am      9 UNK        -0.4218 
     28 C         -72.9065   29.3385  -77.1129 C.2       9 UNK         0.5020 
     29 O         -72.0479   30.2116  -77.2574 O.2       9 UNK        -0.5274 
     30 CA        -73.3933   28.5217  -78.3272 C.3       8 UNK         0.0270 
     31 CB        -72.9436   29.1332  -79.6678 C.3       8 UNK        -0.1976 
     32 N         -72.9665   27.1186  -78.2805 N.am      8 UNK        -0.4313 
     33 C         -73.4479   26.1860  -77.4502 C.2       8 UNK         0.5041 
     34 O         -74.2675   26.4147  -76.5579 O.2       8 UNK        -0.5577 
     35 CA        -72.9463   24.7543  -77.6413 C.3       7 UNK         0.0284 
     36 CB        -71.8350   24.4185  -76.6316 C.3       7 UNK        -0.1958 
     37 N         -74.0919   23.8768  -77.4380 N.am      7 UNK        -0.4454 
     38 C         -74.2559   22.6539  -77.9555 C.2       7 UNK         0.5089 
     39 O         -73.4186   22.0922  -78.6639 O.2       7 UNK        -0.5125 
     40 CA        -75.5900   21.9548  -77.6243 C.3       6 UNK         0.0408 
     41 CB        -75.5756   20.4348  -77.8912 C.3       6 UNK        -0.1791 
     42 N         -76.0442   22.2716  -76.2657 N.am      6 UNK        -0.4762 
     43 C         -75.4664   21.9191  -75.1058 C.2       6 UNK         0.5007 
     44 O         -74.5412   21.1117  -75.0151 O.2       6 UNK        -0.5032 
     45 CA        -75.9722   22.6183  -73.8290 C.3       5 UNK         0.0783 
     46 C46       -74.9298   23.6713  -73.3780 C.3       11 UNK        -0.0857 
     47 S47       -75.3861   24.4842  -71.8121 S.3       11 UNK        -0.2512 
     48 C48       -75.6307   26.1781  -72.4110 C.3       11 UNK         0.0225 
     49 N         -77.3049   23.2030  -74.0381 N.am      5 UNK        -0.4615 
     50 C         -78.4416   22.6895  -73.5467 C.2       4 UNK         0.5053 
     51 O         -78.4865   21.7088  -72.8035 O.2       4 UNK        -0.5105 
     52 CA        -79.7621   23.3665  -73.9643 C.3       4 UNK         0.0263 
     53 CB        -80.1344   24.4754  -72.9701 C.3       4 UNK        -0.1981 
     54 N         -79.7241   23.9213  -75.3202 N.am      4 UNK        -0.4224 
     55 C         -79.5882   23.1839  -76.4334 C.2       3 UNK         0.4895 
     56 O         -79.6006   21.9529  -76.4391 O.2       3 UNK        -0.5091 
     57 CA        -79.3660   23.9226  -77.7669 C.3       3 UNK         0.0250 
     58 CB        -80.6542   23.9098  -78.6056 C.3       3 UNK        -0.1996 
     59 N         -78.8907   25.3049  -77.6488 N.am      3 UNK        -0.4254 
     60 C         -77.7835   25.7252  -77.0195 C.2       2 UNK         0.5004 
     61 O         -77.0187   24.9738  -76.4105 O.2       2 UNK        -0.5226 
     62 CA        -77.5080   27.2427  -77.0455 C.3       2 UNK         0.0269 
     63 CB        -78.2768   27.9967  -78.1537 C.3       2 UNK        -0.1926 
     64 N         -77.7433   27.9062  -75.7571 N.am      2 UNK        -0.4687 
     65 C         -78.8324   27.8164  -74.9769 C.2       1 UNK         0.5165 
     66 O         -79.7502   27.0113  -75.1545 O.2       1 UNK        -0.5079 
     67 H67       -80.0212   32.9451  -75.2481 H         1 UNK         0.0900 
     68 H68       -79.2954   32.3110  -76.7278 H         1 UNK         0.0900 
     69 H69       -78.3041   32.5333  -75.2876 H         1 UNK         0.0900 
     70 H70       -77.9938   30.7238  -74.0513 H         1 UNK         0.2959 
     71 H71       -78.0008   28.7063  -73.2504 H         1 UNK         0.1079 
     72 H72       -81.0577   28.8538  -73.4102 H         1 UNK         0.0837 
     73 H73       -80.2086   27.5810  -72.5955 H         1 UNK         0.0837 
     74 H74       -79.7364   28.8534  -69.1314 H         1 UNK         0.0685 
     75 H75       -80.0513   27.5237  -70.2141 H         1 UNK         0.0685 
     76 H76       -78.2011   26.6778  -71.7180 H         1 UNK         0.1434 
     77 H77       -74.1802   27.7099  -70.6702 H         1 UNK         0.1329 
     78 H78       -77.4739   29.6884  -68.7599 H         1 UNK         0.1335 
     79 H79       -74.0966   28.9305  -68.2143 H         1 UNK         0.0680 
     80 H80       -75.2696   30.2155  -68.0540 H         1 UNK         0.0680 
     81 H81       -74.4879   32.7264  -70.7708 H         1 UNK         0.1032 
     82 H82       -75.7805   31.9084  -69.9398 H         1 UNK         0.1032 
     83 H83       -76.0863   30.3257  -71.8015 H         1 UNK         0.0461 
     84 H84       -78.0174   31.6842  -71.5060 H         1 UNK         0.3453 
     85 H85       -78.2978   33.0051  -72.6053 H         1 UNK         0.3453 
     86 H86       -73.4747   31.1318  -72.6272 H         1 UNK         0.2984 
     87 H87       -72.6573   30.6028  -74.8078 H         1 UNK         0.0554 
     88 H88       -71.3685   28.5258  -74.2852 H         1 UNK         0.0847 
     89 H89       -72.8170   27.7561  -73.6488 H         1 UNK         0.0847 
     90 H90       -72.1165   29.1410  -72.8221 H         1 UNK         0.0847 
     91 H91       -74.1175   28.2476  -75.9217 H         1 UNK         0.3141 
     92 H92       -74.4850   28.5456  -78.3101 H         1 UNK         0.0743 
     93 H93       -73.2641   30.1728  -79.7497 H         1 UNK         0.0784 
     94 H94       -73.3746   28.5972  -80.5136 H         1 UNK         0.0784 
     95 H95       -71.8583   29.1172  -79.7770 H         1 UNK         0.0784 
     96 H96       -72.2625   26.8478  -78.9525 H         1 UNK         0.3213 
     97 H97       -72.5714   24.6342  -78.6602 H         1 UNK         0.0855 
     98 H98       -72.1815   24.5282  -75.6028 H         1 UNK         0.0814 
     99 H99       -70.9765   25.0786  -76.7605 H         1 UNK         0.0814 
    100 H100      -71.4803   23.3954  -76.7571 H         1 UNK         0.0814 
    101 H101      -74.8478   24.3028  -76.9091 H         1 UNK         0.3105 
    102 H102      -76.3298   22.3933  -78.2948 H         1 UNK         0.0547 
    103 H103      -75.4011   20.2289  -78.9478 H         1 UNK         0.0837 
    104 H104      -74.7891   19.9278  -77.3322 H         1 UNK         0.0837 
    105 H105      -76.5280   19.9766  -77.6251 H         1 UNK         0.0837 
    106 H106      -76.7466   23.0010  -76.2194 H         1 UNK         0.3020 
    107 H107      -76.0195   21.8476  -73.0562 H         1 UNK         0.1245 
    108 H108      -74.7794   24.4213  -74.1584 H         1 UNK         0.0781 
    109 H109      -73.9558   23.2022  -73.2243 H         1 UNK         0.0781 
    110 H110      -76.3337   26.1713  -73.2462 H         1 UNK         0.0836 
    111 H111      -74.6908   26.5598  -72.8108 H         1 UNK         0.0836 
    112 H112      -77.3503   24.0056  -74.6567 H         1 UNK         0.3022 
    113 H113      -80.5455   22.6062  -73.9363 H         1 UNK         0.0747 
    114 H114      -81.1047   24.9129  -73.2059 H         1 UNK         0.0793 
    115 H115      -80.1882   24.0894  -71.9512 H         1 UNK         0.0793 
    116 H116      -79.3953   25.2741  -72.9809 H         1 UNK         0.0793 
    117 H117      -79.7236   24.9336  -75.4025 H         1 UNK         0.3047 
    118 H118      -78.6009   23.3668  -78.3118 H         1 UNK         0.0822 
    119 H119      -80.4875   24.3279  -79.5986 H         1 UNK         0.0807 
    120 H120      -81.4511   24.4816  -78.1281 H         1 UNK         0.0807 
    121 H121      -81.0218   22.8919  -78.7442 H         1 UNK         0.0807 
    122 H122      -79.4728   26.0100  -78.0770 H         1 UNK         0.2946 
    123 H123      -76.4482   27.3513  -77.2649 H         1 UNK         0.1144 
    124 H124      -77.9366   29.0300  -78.2252 H         1 UNK         0.0793 
    125 H125      -79.3514   28.0232  -77.9675 H         1 UNK         0.0793 
    126 H126      -78.1138   27.5425  -79.1323 H         1 UNK         0.0793 
    127 H127      -77.0194   28.5554  -75.4636 H         1 UNK         0.2896 
@<TRIPOS>BOND
     1    1    2 1    
     2    1   67 1    
     3    1   68 1    
     4    1   69 1    
     5    2    3 2    
     6    2    4 am   BACKBONE|DICT|INTERRES
     7    4    5 1    
     8    4   70 1    
     9    5    6 1    
    10    5   65 1    
    11    5   71 1    
    12    6    7 1    
    13    6   72 1    
    14    6   73 1    
    15    7    8 1    
    16    8    9 1    
    17    8   74 1    
    18    8   75 1    
    19    9   10 ar   
    20    9   14 ar   
    21   10   11 ar   
    22   10   76 1    
    23   11   12 ar   
    24   11   48 1    
    25   12   13 ar   
    26   12   77 1    
    27   13   14 ar   
    28   13   15 1    
    29   14   78 1    
    30   15   16 1    
    31   15   79 1    
    32   15   80 1    
    33   16   17 1    
    34   17   18 1    
    35   17   81 1    
    36   17   82 1    
    37   18   19 1    
    38   18   22 1    
    39   18   83 1    
    40   19   20 am   BACKBONE|DICT|INTERRES
    41   19   21 2    
    42   20   84 1    
    43   20   85 1    
    44   22   23 am   BACKBONE|DICT|INTERRES
    45   22   86 1    
    46   23   24 2    
    47   23   25 1    
    48   25   26 1    
    49   25   27 1    
    50   25   87 1    
    51   26   88 1    
    52   26   89 1    
    53   26   90 1    
    54   27   28 am   BACKBONE|DICT|INTERRES
    55   27   91 1    
    56   28   29 2    
    57   28   30 1    
    58   30   31 1    
    59   30   32 1    
    60   30   92 1    
    61   31   93 1    
    62   31   94 1    
    63   31   95 1    
    64   32   33 am   BACKBONE|DICT|INTERRES
    65   32   96 1    
    66   33   34 2    
    67   33   35 1    
    68   35   36 1    
    69   35   37 1    
    70   35   97 1    
    71   36   98 1    
    72   36   99 1    
    73   36  100 1    
    74   37   38 am   BACKBONE|DICT|INTERRES
    75   37  101 1    
    76   38   39 2    
    77   38   40 1    
    78   40   41 1    
    79   40   42 1    
    80   40  102 1    
    81   41  103 1    
    82   41  104 1    
    83   41  105 1    
    84   42   43 am   BACKBONE|DICT|INTERRES
    85   42  106 1    
    86   43   44 2    
    87   43   45 1    
    88   45   46 1    
    89   45   49 1    
    90   45  107 1    
    91   46   47 1    
    92   46  108 1    
    93   46  109 1    
    94   47   48 1    
    95   48  110 1    
    96   48  111 1    
    97   49   50 am   BACKBONE|DICT|INTERRES
    98   49  112 1    
    99   50   51 2    
   100   50   52 1    
   101   52   53 1    
   102   52   54 1    
   103   52  113 1    
   104   53  114 1    
   105   53  115 1    
   106   53  116 1    
   107   54   55 am   BACKBONE|DICT|INTERRES
   108   54  117 1    
   109   55   56 2    
   110   55   57 1    
   111   57   58 1    
   112   57   59 1    
   113   57  118 1    
   114   58  119 1    
   115   58  120 1    
   116   58  121 1    
   117   59   60 am   BACKBONE|DICT|INTERRES
   118   59  122 1    
   119   60   61 2    
   120   60   62 1    
   121   62   63 1    
   122   62   64 1    
   123   62  123 1    
   124   63  124 1    
   125   63  125 1    
   126   63  126 1    
   127   64   65 am   BACKBONE|DICT|INTERRES
   128   64  127 1    
   129   65   66 2    
@<TRIPOS>SUBSTRUCTURE
     1 UNK         1 GROUP             0       ****    0 ROOT    
