@<TRIPOS>MOLECULE
3R135
127   129    1
SMALL
USER_CHARGES


@<TRIPOS>ATOM
      1 CA        -83.4737   24.3026  -70.0435 C.3       0 UNK        -0.1998 
      2 C         -83.5437   25.3491  -71.1453 C.2       0 UNK         0.4909 
      3 O         -84.5864   25.4986  -71.7830 O.2       0 UNK        -0.5240 
      4 N         -82.4411   26.0746  -71.3738 N.am      1 UNK        -0.4739 
      5 CA        -82.3264   27.1318  -72.3906 C.3       1 UNK         0.0864 
      6 C6        -81.1137   28.0572  -72.1276 C.3       11 UNK        -0.0881 
      7 S7        -81.1253   28.7874  -70.4518 S.3       11 UNK        -0.2682 
      8 C8        -80.1396   30.3065  -70.6891 C.3       11 UNK         0.0289 
      9 C9        -78.8243   30.0579  -71.4200 C.ar      11 UNK        -0.0687 
     10 C10       -77.9544   29.0488  -71.0007 C.ar      11 UNK        -0.0823 
     11 C11       -76.7922   28.7680  -71.7220 C.ar      11 UNK        -0.0830 
     12 C12       -76.4737   29.5397  -72.8454 C.ar      11 UNK        -0.1021 
     13 C13       -77.3113   30.5892  -73.2522 C.ar      11 UNK        -0.0753 
     14 C14       -78.4874   30.8300  -72.5347 C.ar      11 UNK        -0.0933 
     15 C15       -77.0235   31.4885  -74.4582 C.3       11 UNK         0.0166 
     16 S16       -75.5264   31.1074  -75.4276 S.3       11 UNK        -0.2615 
     17 C17       -74.2113   31.8764  -74.4313 C.3       11 UNK        -0.0865 
     18 CA        -72.8092   31.3317  -74.8186 C.3       10 UNK         0.0862 
     19 C         -71.7015   32.3407  -74.4063 C.2       10 UNK         0.5551 
     20 N         -71.3511   33.2692  -75.2852 N.am      10 UNK        -0.7319 
     21 O         -71.1918   32.3148  -73.2872 O.2       10 UNK        -0.5018 
     22 N         -72.5575   29.9986  -74.2457 N.am      10 UNK        -0.4509 
     23 C         -71.5624   29.1887  -74.6354 C.2       10 UNK         0.4899 
     24 O         -70.8989   29.3637  -75.6581 O.2       10 UNK        -0.4839 
     25 CA        -71.1855   28.0263  -73.7037 C.3       9 UNK         0.0222 
     26 CB        -71.7497   28.1507  -72.2735 C.3       9 UNK        -0.1966 
     27 N         -71.6037   26.7504  -74.2809 N.am      9 UNK        -0.4218 
     28 C         -70.8226   25.6686  -74.3985 C.2       9 UNK         0.5020 
     29 O         -69.6252   25.6486  -74.1071 O.2       9 UNK        -0.5274 
     30 CA        -71.4857   24.3696  -74.8886 C.3       8 UNK         0.0270 
     31 CB        -72.2155   23.6707  -73.7294 C.3       8 UNK        -0.1976 
     32 N         -72.4121   24.5667  -76.0046 N.am      8 UNK        -0.4313 
     33 C         -72.0387   24.8564  -77.2594 C.2       8 UNK         0.5041 
     34 O         -70.8656   24.9714  -77.6172 O.2       8 UNK        -0.5577 
     35 CA        -73.1621   25.0496  -78.2942 C.3       7 UNK         0.0284 
     36 CB        -73.6554   23.6954  -78.8283 C.3       7 UNK        -0.1958 
     37 N         -74.2911   25.8077  -77.7538 N.am      7 UNK        -0.4454 
     38 C         -74.2358   27.1028  -77.4164 C.2       7 UNK         0.5089 
     39 O         -73.2661   27.8269  -77.6376 O.2       7 UNK        -0.5125 
     40 CA        -75.4504   27.6821  -76.6753 C.3       6 UNK         0.0408 
     41 CB        -76.4848   28.2562  -77.6552 C.3       6 UNK        -0.1791 
     42 N         -76.0914   26.7224  -75.7751 N.am      6 UNK        -0.4762 
     43 C         -75.5224   26.2457  -74.6585 C.2       6 UNK         0.5007 
     44 O         -74.4060   26.5828  -74.2667 O.2       6 UNK        -0.5032 
     45 CA        -76.3107   25.1724  -73.8854 C.3       5 UNK         0.0783 
     46 C46       -77.3559   25.8089  -72.9319 C.3       11 UNK        -0.0857 
     47 S47       -76.7307   26.0113  -71.2298 S.3       11 UNK        -0.2512 
     48 C48       -75.8835   27.6272  -71.2857 C.3       11 UNK         0.0225 
     49 N         -76.9181   24.2121  -74.8102 N.am      5 UNK        -0.4615 
     50 C         -76.2213   23.3260  -75.5377 C.2       4 UNK         0.5053 
     51 O         -75.0002   23.1971  -75.4612 O.2       4 UNK        -0.5105 
     52 CA        -77.0027   22.4755  -76.5562 C.3       4 UNK         0.0263 
     53 CB        -77.5016   21.1782  -75.9013 C.3       4 UNK        -0.1981 
     54 N         -78.1358   23.1885  -77.1503 N.am      4 UNK        -0.4224 
     55 C         -78.0357   24.3106  -77.8778 C.2       3 UNK         0.4895 
     56 O         -76.9616   24.8028  -78.2205 O.2       3 UNK        -0.5091 
     57 CA        -79.3436   25.0409  -78.2367 C.3       3 UNK         0.0250 
     58 CB        -79.7649   24.7058  -79.6759 C.3       3 UNK        -0.1996 
     59 N         -80.4630   24.7684  -77.3242 N.am      3 UNK        -0.4254 
     60 C         -80.4710   25.0245  -76.0077 C.2       2 UNK         0.5004 
     61 O         -79.5100   25.4984  -75.3955 O.2       2 UNK        -0.5226 
     62 CA        -81.7328   24.5914  -75.2444 C.3       2 UNK         0.0269 
     63 CB        -81.6893   23.0796  -74.9628 C.3       2 UNK        -0.1926 
     64 N         -81.8738   25.2955  -73.9699 N.am      2 UNK        -0.4687 
     65 C         -82.2669   26.5694  -73.8291 C.2       1 UNK         0.5165 
     66 O         -82.5884   27.2904  -74.7753 O.2       1 UNK        -0.5079 
     67 H67       -83.6688   23.3122  -70.4539 H         1 UNK         0.0900 
     68 H68       -84.2242   24.5100  -69.2813 H         1 UNK         0.0900 
     69 H69       -82.4969   24.2835  -69.5605 H         1 UNK         0.0900 
     70 H70       -81.6219   25.9337  -70.7995 H         1 UNK         0.2959 
     71 H71       -83.2299   27.7435  -72.3342 H         1 UNK         0.1079 
     72 H72       -80.1775   27.5095  -72.2559 H         1 UNK         0.0837 
     73 H73       -81.0958   28.8679  -72.8591 H         1 UNK         0.0837 
     74 H74       -80.7506   31.0307  -71.2301 H         1 UNK         0.0685 
     75 H75       -79.9272   30.7473  -69.7144 H         1 UNK         0.0685 
     76 H76       -78.2047   28.4502  -70.1353 H         1 UNK         0.1434 
     77 H77       -75.5736   29.3120  -73.3977 H         1 UNK         0.1329 
     78 H78       -79.1515   31.6214  -72.8552 H         1 UNK         0.1335 
     79 H79       -77.8743   31.4249  -75.1382 H         1 UNK         0.0680 
     80 H80       -76.9729   32.5271  -74.1279 H         1 UNK         0.0680 
     81 H81       -74.4085   31.7320  -73.3676 H         1 UNK         0.1032 
     82 H82       -74.2768   32.9525  -74.6061 H         1 UNK         0.1032 
     83 H83       -72.7688   31.2351  -75.9061 H         1 UNK         0.0461 
     84 H84       -71.7705   33.3042  -76.2015 H         1 UNK         0.3453 
     85 H85       -70.6456   33.9434  -75.0318 H         1 UNK         0.3453 
     86 H86       -73.0249   29.7952  -73.3763 H         1 UNK         0.2984 
     87 H87       -70.0971   28.0615  -73.6237 H         1 UNK         0.0554 
     88 H88       -71.3566   27.3627  -71.6308 H         1 UNK         0.0847 
     89 H89       -72.8354   28.0741  -72.2554 H         1 UNK         0.0847 
     90 H90       -71.4698   29.1017  -71.8176 H         1 UNK         0.0847 
     91 H91       -72.5926   26.6728  -74.5149 H         1 UNK         0.3141 
     92 H92       -70.6903   23.7036  -75.2301 H         1 UNK         0.0743 
     93 H93       -73.0457   24.2698  -73.3541 H         1 UNK         0.0784 
     94 H94       -72.6133   22.7034  -74.0372 H         1 UNK         0.0784 
     95 H95       -71.5385   23.4910  -72.8932 H         1 UNK         0.0784 
     96 H96       -73.3969   24.4134  -75.8123 H         1 UNK         0.3213 
     97 H97       -72.7495   25.6150  -79.1327 H         1 UNK         0.0855 
     98 H98       -74.0632   23.0701  -78.0342 H         1 UNK         0.0814 
     99 H99       -72.8388   23.1404  -79.2919 H         1 UNK         0.0814 
    100 H100      -74.4309   23.8248  -79.5837 H         1 UNK         0.0814 
    101 H101      -75.1738   25.3174  -77.6390 H         1 UNK         0.3105 
    102 H102      -75.0716   28.4929  -76.0562 H         1 UNK         0.0547 
    103 H103      -76.0321   29.0191  -78.2899 H         1 UNK         0.0837 
    104 H104      -76.8953   27.4888  -78.3112 H         1 UNK         0.0837 
    105 H105      -77.3121   28.7285  -77.1253 H         1 UNK         0.0837 
    106 H106      -77.0033   26.3765  -76.0403 H         1 UNK         0.3020 
    107 H107      -75.5865   24.6129  -73.2884 H         1 UNK         0.1245 
    108 H108      -78.2262   25.1561  -72.8466 H         1 UNK         0.0781 
    109 H109      -77.7542   26.7511  -73.3141 H         1 UNK         0.0781 
    110 H110      -75.0198   27.5461  -71.9418 H         1 UNK         0.0836 
    111 H111      -75.4893   27.8507  -70.2935 H         1 UNK         0.0836 
    112 H112      -77.9119   24.3270  -74.9789 H         1 UNK         0.3022 
    113 H113      -76.3159   22.2115  -77.3629 H         1 UNK         0.0747 
    114 H114      -77.9856   20.5264  -76.6289 H         1 UNK         0.0793 
    115 H115      -76.6721   20.6172  -75.4682 H         1 UNK         0.0793 
    116 H116      -78.2145   21.3768  -75.0998 H         1 UNK         0.0793 
    117 H117      -79.0584   22.8458  -76.9283 H         1 UNK         0.3047 
    118 H118      -79.1348   26.1113  -78.1825 H         1 UNK         0.0822 
    119 H119      -80.6287   25.2946  -79.9851 H         1 UNK         0.0807 
    120 H120      -80.0180   23.6507  -79.7883 H         1 UNK         0.0807 
    121 H121      -78.9595   24.9241  -80.3791 H         1 UNK         0.0807 
    122 H122      -81.2869   24.3588  -77.7417 H         1 UNK         0.2946 
    123 H123      -82.6064   24.8155  -75.8613 H         1 UNK         0.1144 
    124 H124      -80.8220   22.8049  -74.3606 H         1 UNK         0.0793 
    125 H125      -81.6394   22.5048  -75.8885 H         1 UNK         0.0793 
    126 H126      -82.5827   22.7504  -74.4315 H         1 UNK         0.0793 
    127 H127      -81.6077   24.7903  -73.1380 H         1 UNK         0.2896 
@<TRIPOS>BOND
     1    1    2 1    
     2    1   67 1    
     3    1   68 1    
     4    1   69 1    
     5    2    3 2    
     6    2    4 am   BACKBONE|DICT|INTERRES
     7    4    5 1    
     8    4   70 1    
     9    5    6 1    
    10    5   65 1    
    11    5   71 1    
    12    6    7 1    
    13    6   72 1    
    14    6   73 1    
    15    7    8 1    
    16    8    9 1    
    17    8   74 1    
    18    8   75 1    
    19    9   10 ar   
    20    9   14 ar   
    21   10   11 ar   
    22   10   76 1    
    23   11   12 ar   
    24   11   48 1    
    25   12   13 ar   
    26   12   77 1    
    27   13   14 ar   
    28   13   15 1    
    29   14   78 1    
    30   15   16 1    
    31   15   79 1    
    32   15   80 1    
    33   16   17 1    
    34   17   18 1    
    35   17   81 1    
    36   17   82 1    
    37   18   19 1    
    38   18   22 1    
    39   18   83 1    
    40   19   20 am   BACKBONE|DICT|INTERRES
    41   19   21 2    
    42   20   84 1    
    43   20   85 1    
    44   22   23 am   BACKBONE|DICT|INTERRES
    45   22   86 1    
    46   23   24 2    
    47   23   25 1    
    48   25   26 1    
    49   25   27 1    
    50   25   87 1    
    51   26   88 1    
    52   26   89 1    
    53   26   90 1    
    54   27   28 am   BACKBONE|DICT|INTERRES
    55   27   91 1    
    56   28   29 2    
    57   28   30 1    
    58   30   31 1    
    59   30   32 1    
    60   30   92 1    
    61   31   93 1    
    62   31   94 1    
    63   31   95 1    
    64   32   33 am   BACKBONE|DICT|INTERRES
    65   32   96 1    
    66   33   34 2    
    67   33   35 1    
    68   35   36 1    
    69   35   37 1    
    70   35   97 1    
    71   36   98 1    
    72   36   99 1    
    73   36  100 1    
    74   37   38 am   BACKBONE|DICT|INTERRES
    75   37  101 1    
    76   38   39 2    
    77   38   40 1    
    78   40   41 1    
    79   40   42 1    
    80   40  102 1    
    81   41  103 1    
    82   41  104 1    
    83   41  105 1    
    84   42   43 am   BACKBONE|DICT|INTERRES
    85   42  106 1    
    86   43   44 2    
    87   43   45 1    
    88   45   46 1    
    89   45   49 1    
    90   45  107 1    
    91   46   47 1    
    92   46  108 1    
    93   46  109 1    
    94   47   48 1    
    95   48  110 1    
    96   48  111 1    
    97   49   50 am   BACKBONE|DICT|INTERRES
    98   49  112 1    
    99   50   51 2    
   100   50   52 1    
   101   52   53 1    
   102   52   54 1    
   103   52  113 1    
   104   53  114 1    
   105   53  115 1    
   106   53  116 1    
   107   54   55 am   BACKBONE|DICT|INTERRES
   108   54  117 1    
   109   55   56 2    
   110   55   57 1    
   111   57   58 1    
   112   57   59 1    
   113   57  118 1    
   114   58  119 1    
   115   58  120 1    
   116   58  121 1    
   117   59   60 am   BACKBONE|DICT|INTERRES
   118   59  122 1    
   119   60   61 2    
   120   60   62 1    
   121   62   63 1    
   122   62   64 1    
   123   62  123 1    
   124   63  124 1    
   125   63  125 1    
   126   63  126 1    
   127   64   65 am   BACKBONE|DICT|INTERRES
   128   64  127 1    
   129   65   66 2    
@<TRIPOS>SUBSTRUCTURE
     1 UNK         1 GROUP             0       ****    0 ROOT    
