@<TRIPOS>MOLECULE
3R135
127   129    1
SMALL
USER_CHARGES


@<TRIPOS>ATOM
      1 CA        -84.0780   28.8131  -77.3905 C.3       0 UNK        -0.1998 
      2 C         -82.6204   28.5882  -77.0176 C.2       0 UNK         0.4909 
      3 O         -81.7356   29.2155  -77.5999 O.2       0 UNK        -0.5240 
      4 N         -82.3624   27.6940  -76.0531 N.am      1 UNK        -0.4739 
      5 CA        -81.0170   27.3496  -75.5727 C.3       1 UNK         0.0864 
      6 C6        -81.0753   26.7757  -74.1318 C.3       11 UNK        -0.0881 
      7 S7        -79.4654   26.8664  -73.2807 S.3       11 UNK        -0.2682 
      8 C8        -79.7976   27.9522  -71.8654 C.3       11 UNK         0.0289 
      9 C9        -78.4987   28.2428  -71.1308 C.ar      11 UNK        -0.0687 
     10 C10       -77.9116   27.2594  -70.3278 C.ar      11 UNK        -0.0823 
     11 C11       -76.6832   27.4956  -69.7041 C.ar      11 UNK        -0.0830 
     12 C12       -76.0597   28.7375  -69.8621 C.ar      11 UNK        -0.1021 
     13 C13       -76.6323   29.7249  -70.6678 C.ar      11 UNK        -0.0753 
     14 C14       -77.8583   29.4757  -71.2904 C.ar      11 UNK        -0.0933 
     15 C15       -75.9197   31.0541  -70.8779 C.3       11 UNK         0.0166 
     16 S16       -74.8556   31.0290  -72.3587 S.3       11 UNK        -0.2615 
     17 C17       -73.5406   29.8735  -71.8400 C.3       11 UNK        -0.0865 
     18 CA        -72.2147   30.0447  -72.6260 C.3       10 UNK         0.0862 
     19 C         -71.0706   29.1795  -72.0165 C.2       10 UNK         0.5551 
     20 N         -70.3309   28.3917  -72.7895 N.am      10 UNK        -0.7319 
     21 O         -70.8378   29.2342  -70.8115 O.2       10 UNK        -0.5018 
     22 N         -72.4020   29.8283  -74.0695 N.am      10 UNK        -0.4509 
     23 C         -71.7509   30.5050  -75.0238 C.2       10 UNK         0.4899 
     24 O         -70.9781   31.4369  -74.7929 O.2       10 UNK        -0.4839 
     25 CA        -72.0021   30.0659  -76.4804 C.3       9 UNK         0.0222 
     26 CB        -70.9306   30.5943  -77.4581 C.3       9 UNK        -0.1966 
     27 N         -72.1736   28.6167  -76.6428 N.am      9 UNK        -0.4218 
     28 C         -71.3003   27.6471  -76.3205 C.2       9 UNK         0.5020 
     29 O         -70.2133   27.8670  -75.7839 O.2       9 UNK        -0.5274 
     30 CA        -71.7058   26.1891  -76.6227 C.3       8 UNK         0.0270 
     31 CB        -71.2750   25.2346  -75.4930 C.3       8 UNK        -0.1976 
     32 N         -73.1503   26.0644  -76.8200 N.am      8 UNK        -0.4313 
     33 C         -73.7796   25.9863  -78.0012 C.2       8 UNK         0.5041 
     34 O         -73.1975   25.8950  -79.0822 O.2       8 UNK        -0.5577 
     35 CA        -75.3198   26.0658  -77.9808 C.3       7 UNK         0.0284 
     36 CB        -75.9364   24.6679  -78.1424 C.3       7 UNK        -0.1958 
     37 N         -75.8434   26.6986  -76.7644 N.am      7 UNK        -0.4454 
     38 C         -75.6658   27.9926  -76.4538 C.2       7 UNK         0.5089 
     39 O         -75.1231   28.7984  -77.2097 O.2       7 UNK        -0.5125 
     40 CA        -76.0677   28.4566  -75.0423 C.3       6 UNK         0.0408 
     41 CB        -77.4257   29.1638  -75.0749 C.3       6 UNK        -0.1791 
     42 N         -76.0651   27.3700  -74.0533 N.am      6 UNK        -0.4762 
     43 C         -74.9466   26.7433  -73.6572 C.2       6 UNK         0.5007 
     44 O         -73.8268   27.0837  -74.0427 O.2       6 UNK        -0.5032 
     45 CA        -75.0662   25.5205  -72.7223 C.3       5 UNK         0.0783 
     46 C46       -74.5298   25.8319  -71.2879 C.3       11 UNK        -0.0857 
     47 S47       -75.4117   25.0059  -69.9059 S.3       11 UNK        -0.2512 
     48 C48       -76.0046   26.4034  -68.8861 C.3       11 UNK         0.0225 
     49 N         -76.3680   24.8412  -72.7358 N.am      5 UNK        -0.4615 
     50 C         -76.9327   24.2314  -73.7847 C.2       4 UNK         0.5053 
     51 O         -76.5734   24.4053  -74.9491 O.2       4 UNK        -0.5105 
     52 CA        -78.0156   23.1865  -73.4706 C.3       4 UNK         0.0263 
     53 CB        -78.7668   23.3971  -72.1355 C.3       4 UNK        -0.1981 
     54 N         -78.9598   23.0457  -74.5808 N.am      4 UNK        -0.4224 
     55 C         -79.5794   21.8974  -74.8911 C.2       3 UNK         0.4895 
     56 O         -79.3798   20.8402  -74.2895 O.2       3 UNK        -0.5091 
     57 CA        -80.6168   21.8956  -76.0291 C.3       3 UNK         0.0250 
     58 CB        -82.0093   21.5332  -75.4819 C.3       3 UNK        -0.1996 
     59 N         -80.7216   23.1695  -76.7395 N.am      3 UNK        -0.4254 
     60 C         -80.0400   23.4970  -77.8450 C.2       2 UNK         0.5004 
     61 O         -79.2008   22.7698  -78.3760 O.2       2 UNK        -0.5226 
     62 CA        -80.3656   24.8643  -78.4755 C.3       2 UNK         0.0269 
     63 CB        -81.3257   24.6943  -79.6640 C.3       2 UNK        -0.1926 
     64 N         -80.9475   25.8164  -77.5217 N.am      2 UNK        -0.4687 
     65 C         -80.2514   26.4120  -76.5425 C.2       1 UNK         0.5165 
     66 O         -79.0464   26.2197  -76.3845 O.2       1 UNK        -0.5079 
     67 H67       -84.7516   28.1945  -76.7977 H         1 UNK         0.0900 
     68 H68       -84.3486   29.8566  -77.2316 H         1 UNK         0.0900 
     69 H69       -84.2372   28.5763  -78.4422 H         1 UNK         0.0900 
     70 H70       -83.1297   27.2105  -75.6069 H         1 UNK         0.2959 
     71 H71       -80.4527   28.2829  -75.5334 H         1 UNK         0.1079 
     72 H72       -81.4176   25.7391  -74.1322 H         1 UNK         0.0837 
     73 H73       -81.8046   27.3294  -73.5383 H         1 UNK         0.0837 
     74 H74       -80.5097   27.4724  -71.1924 H         1 UNK         0.0685 
     75 H75       -80.2608   28.8765  -72.2141 H         1 UNK         0.0685 
     76 H76       -78.3939   26.2977  -70.2185 H         1 UNK         0.1434 
     77 H77       -75.1093   28.9257  -69.3820 H         1 UNK         0.1329 
     78 H78       -78.3019   30.2365  -71.9175 H         1 UNK         0.1335 
     79 H79       -75.3244   31.3130  -70.0009 H         1 UNK         0.0680 
     80 H80       -76.6557   31.8517  -70.9898 H         1 UNK         0.0680 
     81 H81       -73.9151   28.8595  -71.9529 H         1 UNK         0.1032 
     82 H82       -73.3646   30.0195  -70.7728 H         1 UNK         0.1032 
     83 H83       -71.8984   31.0777  -72.4703 H         1 UNK         0.0461 
     84 H84       -69.5941   27.8484  -72.3698 H         1 UNK         0.3453 
     85 H85       -70.4738   28.3510  -73.7917 H         1 UNK         0.3453 
     86 H86       -72.9744   29.0317  -74.3228 H         1 UNK         0.2984 
     87 H87       -72.9542   30.5153  -76.7656 H         1 UNK         0.0554 
     88 H88       -70.8884   31.6841  -77.4435 H         1 UNK         0.0847 
     89 H89       -71.1467   30.2953  -78.4837 H         1 UNK         0.0847 
     90 H90       -69.9356   30.2271  -77.2039 H         1 UNK         0.0847 
     91 H91       -73.0632   28.3431  -77.0445 H         1 UNK         0.3141 
     92 H92       -71.1782   25.8947  -77.5320 H         1 UNK         0.0743 
     93 H93       -70.1903   25.2272  -75.3783 H         1 UNK         0.0784 
     94 H94       -71.7005   25.5251  -74.5319 H         1 UNK         0.0784 
     95 H95       -71.5826   24.2097  -75.7007 H         1 UNK         0.0784 
     96 H96       -73.7105   26.1772  -75.9831 H         1 UNK         0.3213 
     97 H97       -75.6302   26.6749  -78.8324 H         1 UNK         0.0855 
     98 H98       -75.5949   23.9827  -77.3660 H         1 UNK         0.0814 
     99 H99       -75.6630   24.2306  -79.1034 H         1 UNK         0.0814 
    100 H100      -77.0248   24.7051  -78.0988 H         1 UNK         0.0814 
    101 H101      -76.3060   26.0879  -76.0953 H         1 UNK         0.3105 
    102 H102      -75.3267   29.1917  -74.7230 H         1 UNK         0.0547 
    103 H103      -78.2038   28.5031  -75.4460 H         1 UNK         0.0837 
    104 H104      -77.3959   30.0318  -75.7347 H         1 UNK         0.0837 
    105 H105      -77.7178   29.5173  -74.0886 H         1 UNK         0.0837 
    106 H106      -76.9615   27.0409  -73.7164 H         1 UNK         0.3020 
    107 H107      -74.3780   24.7880  -73.1510 H         1 UNK         0.1245 
    108 H108      -74.5105   26.9005  -71.0917 H         1 UNK         0.0781 
    109 H109      -73.4816   25.5339  -71.2284 H         1 UNK         0.0781 
    110 H110      -75.1591   26.8103  -68.3291 H         1 UNK         0.0836 
    111 H111      -76.7041   26.0250  -68.1395 H         1 UNK         0.0836 
    112 H112      -76.7461   24.6607  -71.8167 H         1 UNK         0.3022 
    113 H113      -77.4581   22.2519  -73.3802 H         1 UNK         0.0747 
    114 H114      -79.4684   22.5836  -71.9510 H         1 UNK         0.0793 
    115 H115      -78.0876   23.4143  -71.2829 H         1 UNK         0.0793 
    116 H116      -79.3381   24.3228  -72.1263 H         1 UNK         0.0793 
    117 H117      -79.0839   23.8639  -75.1636 H         1 UNK         0.3047 
    118 H118      -80.3180   21.1143  -76.7316 H         1 UNK         0.0822 
    119 H119      -82.7479   21.4765  -76.2819 H         1 UNK         0.0807 
    120 H120      -82.3595   22.2636  -74.7513 H         1 UNK         0.0807 
    121 H121      -81.9973   20.5601  -74.9887 H         1 UNK         0.0807 
    122 H122      -81.3910   23.8347  -76.3820 H         1 UNK         0.2946 
    123 H123      -79.4268   25.2802  -78.8493 H         1 UNK         0.1144 
    124 H124      -81.5086   25.6449  -80.1654 H         1 UNK         0.0793 
    125 H125      -82.2882   24.2869  -79.3520 H         1 UNK         0.0793 
    126 H126      -80.9091   24.0131  -80.4074 H         1 UNK         0.0793 
    127 H127      -81.9309   26.0264  -77.6130 H         1 UNK         0.2896 
@<TRIPOS>BOND
     1    1    2 1    
     2    1   67 1    
     3    1   68 1    
     4    1   69 1    
     5    2    3 2    
     6    2    4 am   BACKBONE|DICT|INTERRES
     7    4    5 1    
     8    4   70 1    
     9    5    6 1    
    10    5   65 1    
    11    5   71 1    
    12    6    7 1    
    13    6   72 1    
    14    6   73 1    
    15    7    8 1    
    16    8    9 1    
    17    8   74 1    
    18    8   75 1    
    19    9   10 ar   
    20    9   14 ar   
    21   10   11 ar   
    22   10   76 1    
    23   11   12 ar   
    24   11   48 1    
    25   12   13 ar   
    26   12   77 1    
    27   13   14 ar   
    28   13   15 1    
    29   14   78 1    
    30   15   16 1    
    31   15   79 1    
    32   15   80 1    
    33   16   17 1    
    34   17   18 1    
    35   17   81 1    
    36   17   82 1    
    37   18   19 1    
    38   18   22 1    
    39   18   83 1    
    40   19   20 am   BACKBONE|DICT|INTERRES
    41   19   21 2    
    42   20   84 1    
    43   20   85 1    
    44   22   23 am   BACKBONE|DICT|INTERRES
    45   22   86 1    
    46   23   24 2    
    47   23   25 1    
    48   25   26 1    
    49   25   27 1    
    50   25   87 1    
    51   26   88 1    
    52   26   89 1    
    53   26   90 1    
    54   27   28 am   BACKBONE|DICT|INTERRES
    55   27   91 1    
    56   28   29 2    
    57   28   30 1    
    58   30   31 1    
    59   30   32 1    
    60   30   92 1    
    61   31   93 1    
    62   31   94 1    
    63   31   95 1    
    64   32   33 am   BACKBONE|DICT|INTERRES
    65   32   96 1    
    66   33   34 2    
    67   33   35 1    
    68   35   36 1    
    69   35   37 1    
    70   35   97 1    
    71   36   98 1    
    72   36   99 1    
    73   36  100 1    
    74   37   38 am   BACKBONE|DICT|INTERRES
    75   37  101 1    
    76   38   39 2    
    77   38   40 1    
    78   40   41 1    
    79   40   42 1    
    80   40  102 1    
    81   41  103 1    
    82   41  104 1    
    83   41  105 1    
    84   42   43 am   BACKBONE|DICT|INTERRES
    85   42  106 1    
    86   43   44 2    
    87   43   45 1    
    88   45   46 1    
    89   45   49 1    
    90   45  107 1    
    91   46   47 1    
    92   46  108 1    
    93   46  109 1    
    94   47   48 1    
    95   48  110 1    
    96   48  111 1    
    97   49   50 am   BACKBONE|DICT|INTERRES
    98   49  112 1    
    99   50   51 2    
   100   50   52 1    
   101   52   53 1    
   102   52   54 1    
   103   52  113 1    
   104   53  114 1    
   105   53  115 1    
   106   53  116 1    
   107   54   55 am   BACKBONE|DICT|INTERRES
   108   54  117 1    
   109   55   56 2    
   110   55   57 1    
   111   57   58 1    
   112   57   59 1    
   113   57  118 1    
   114   58  119 1    
   115   58  120 1    
   116   58  121 1    
   117   59   60 am   BACKBONE|DICT|INTERRES
   118   59  122 1    
   119   60   61 2    
   120   60   62 1    
   121   62   63 1    
   122   62   64 1    
   123   62  123 1    
   124   63  124 1    
   125   63  125 1    
   126   63  126 1    
   127   64   65 am   BACKBONE|DICT|INTERRES
   128   64  127 1    
   129   65   66 2    
@<TRIPOS>SUBSTRUCTURE
     1 UNK         1 GROUP             0       ****    0 ROOT    
