@<TRIPOS>MOLECULE
3R135
127   129    1
SMALL
USER_CHARGES


@<TRIPOS>ATOM
      1 CA        -81.1267   23.8927  -71.8909 C.3       0 UNK        -0.1998 
      2 C         -81.5545   24.8526  -72.9911 C.2       0 UNK         0.4909 
      3 O         -82.3194   24.4689  -73.8784 O.2       0 UNK        -0.5240 
      4 N         -81.0792   26.1032  -72.9346 N.am      1 UNK        -0.4739 
      5 CA        -81.3974   27.1619  -73.8970 C.3       1 UNK         0.0864 
      6 C6        -81.0128   28.5685  -73.3763 C.3       11 UNK        -0.0881 
      7 S7        -81.9117   28.9769  -71.8389 S.3       11 UNK        -0.2682 
      8 C8        -80.8938   30.3195  -71.1329 C.3       11 UNK         0.0289 
      9 C9        -79.4454   29.9372  -70.8296 C.ar      11 UNK        -0.0687 
     10 C10       -79.0966   28.6514  -70.3959 C.ar      11 UNK        -0.0823 
     11 C11       -77.7580   28.3162  -70.1771 C.ar      11 UNK        -0.0830 
     12 C12       -76.7718   29.2956  -70.3105 C.ar      11 UNK        -0.1021 
     13 C13       -77.1003   30.5783  -70.7526 C.ar      11 UNK        -0.0753 
     14 C14       -78.4388   30.8933  -71.0057 C.ar      11 UNK        -0.0933 
     15 C15       -76.0055   31.6076  -70.9960 C.3       11 UNK         0.0166 
     16 S16       -75.1217   31.2827  -72.5593 S.3       11 UNK        -0.2615 
     17 C17       -73.9535   29.9677  -72.0640 C.3       11 UNK        -0.0865 
     18 CA        -72.5902   30.0898  -72.7871 C.3       10 UNK         0.0862 
     19 C         -71.5284   29.1735  -72.1256 C.2       10 UNK         0.5551 
     20 N         -70.5596   29.7454  -71.4245 N.am      10 UNK        -0.7319 
     21 O         -71.6058   27.9497  -72.2053 O.2       10 UNK        -0.5018 
     22 N         -72.7124   29.7713  -74.2131 N.am      10 UNK        -0.4509 
     23 C         -71.8736   30.2063  -75.1595 C.2       10 UNK         0.4899 
     24 O         -70.9781   31.0301  -74.9625 O.2       10 UNK        -0.4839 
     25 CA        -72.0724   29.5905  -76.5551 C.3       9 UNK         0.0222 
     26 CB        -71.0780   30.1198  -77.6102 C.3       9 UNK        -0.1966 
     27 N         -72.0583   28.1258  -76.4982 N.am      9 UNK        -0.4218 
     28 C         -71.0551   27.3190  -76.1169 C.2       9 UNK         0.5020 
     29 O         -69.9269   27.7105  -75.8150 O.2       9 UNK        -0.5274 
     30 CA        -71.3582   25.8089  -76.0516 C.3       8 UNK         0.0270 
     31 CB        -71.5140   25.3606  -74.5893 C.3       8 UNK        -0.1976 
     32 N         -72.5619   25.4240  -76.7930 N.am      8 UNK        -0.4313 
     33 C         -72.6653   25.3859  -78.1284 C.2       8 UNK         0.5041 
     34 O         -71.7208   25.5725  -78.8962 O.2       8 UNK        -0.5577 
     35 CA        -74.0726   25.1474  -78.7010 C.3       7 UNK         0.0284 
     36 CB        -74.4201   23.6498  -78.7167 C.3       7 UNK        -0.1958 
     37 N         -75.1006   25.8939  -77.9678 N.am      7 UNK        -0.4454 
     38 C         -75.2376   27.2278  -78.0025 C.2       7 UNK         0.5089 
     39 O         -74.5327   27.9703  -78.6847 O.2       7 UNK        -0.5125 
     40 CA        -76.3271   27.8466  -77.1106 C.3       6 UNK         0.0408 
     41 CB        -77.6439   27.9650  -77.8908 C.3       6 UNK        -0.1791 
     42 N         -76.5517   27.0986  -75.8705 N.am      6 UNK        -0.4762 
     43 C         -75.6684   27.0246  -74.8636 C.2       6 UNK         0.5007 
     44 O         -74.5862   27.6141  -74.8599 O.2       6 UNK        -0.5032 
     45 CA        -76.0404   26.1033  -73.6851 C.3       5 UNK         0.0783 
     46 C46       -77.0927   26.7845  -72.7812 C.3       11 UNK        -0.0857 
     47 S47       -77.6247   25.7829  -71.3418 S.3       11 UNK        -0.2512 
     48 C48       -77.3537   26.8754  -69.8975 C.3       11 UNK         0.0225 
     49 N         -76.4527   24.7696  -74.1354 N.am      5 UNK        -0.4615 
     50 C         -75.6826   23.9066  -74.8070 C.2       4 UNK         0.5053 
     51 O         -74.5596   24.1849  -75.2237 O.2       4 UNK        -0.5105 
     52 CA        -76.2346   22.4916  -75.0559 C.3       4 UNK         0.0263 
     53 CB        -76.2750   21.6781  -73.7468 C.3       4 UNK        -0.1981 
     54 N         -77.5213   22.4357  -75.7642 N.am      4 UNK        -0.4224 
     55 C         -78.7148   22.8818  -75.3519 C.2       3 UNK         0.4895 
     56 O         -78.9043   23.4684  -74.2859 O.2       3 UNK        -0.5091 
     57 CA        -79.9080   22.5974  -76.2724 C.3       3 UNK         0.0250 
     58 CB        -80.8651   21.5839  -75.6240 C.3       3 UNK        -0.1996 
     59 N         -80.6261   23.8407  -76.5341 N.am      3 UNK        -0.4254 
     60 C         -80.3091   24.7001  -77.5124 C.2       2 UNK         0.5004 
     61 O         -79.4335   24.4887  -78.3521 O.2       2 UNK        -0.5226 
     62 CA        -81.0903   26.0263  -77.5621 C.3       2 UNK         0.0269 
     63 CB        -82.2974   25.9053  -78.5059 C.3       2 UNK        -0.1926 
     64 N         -81.5477   26.4772  -76.2452 N.am      2 UNK        -0.4687 
     65 C         -80.7317   26.8505  -75.2500 C.2       1 UNK         0.5165 
     66 O         -79.5061   26.9181  -75.3617 O.2       1 UNK        -0.5079 
     67 H67       -81.9893   23.5959  -71.2954 H         1 UNK         0.0900 
     68 H68       -80.3893   24.3404  -71.2253 H         1 UNK         0.0900 
     69 H69       -80.6866   22.9955  -72.3247 H         1 UNK         0.0900 
     70 H70       -80.4226   26.3547  -72.2105 H         1 UNK         0.2959 
     71 H71       -82.4801   27.1567  -74.0431 H         1 UNK         0.1079 
     72 H72       -79.9369   28.6305  -73.2048 H         1 UNK         0.0837 
     73 H73       -81.2493   29.3322  -74.1196 H         1 UNK         0.0837 
     74 H74       -81.3614   30.6596  -70.2082 H         1 UNK         0.0685 
     75 H75       -80.9248   31.1639  -71.8235 H         1 UNK         0.0685 
     76 H76       -79.8568   27.8923  -70.2780 H         1 UNK         0.1434 
     77 H77       -75.7384   29.0379  -70.1312 H         1 UNK         0.1329 
     78 H78       -78.6957   31.8843  -71.3547 H         1 UNK         0.1335 
     79 H79       -76.4371   32.6085  -71.0459 H         1 UNK         0.0680 
     80 H80       -75.3068   31.6234  -70.1584 H         1 UNK         0.0680 
     81 H81       -74.4077   28.9937  -72.2557 H         1 UNK         0.1032 
     82 H82       -73.8007   30.0291  -70.9852 H         1 UNK         0.1032 
     83 H83       -72.2567   31.1256  -72.6906 H         1 UNK         0.0461 
     84 H84       -70.4918   30.7487  -71.3514 H         1 UNK         0.3453 
     85 H85       -69.8712   29.1625  -70.9746 H         1 UNK         0.3453 
     86 H86       -73.3870   29.0488  -74.4513 H         1 UNK         0.2984 
     87 H87       -73.0755   29.8730  -76.8785 H         1 UNK         0.0554 
     88 H88       -71.1694   31.2008  -77.7218 H         1 UNK         0.0847 
     89 H89       -71.2662   29.6757  -78.5877 H         1 UNK         0.0847 
     90 H90       -70.0432   29.9091  -77.3392 H         1 UNK         0.0847 
     91 H91       -72.9481   27.6826  -76.6817 H         1 UNK         0.3141 
     92 H92       -70.5051   25.2826  -76.4848 H         1 UNK         0.0743 
     93 H93       -70.6253   25.6062  -74.0062 H         1 UNK         0.0784 
     94 H94       -72.3623   25.8507  -74.1086 H         1 UNK         0.0784 
     95 H95       -71.6645   24.2834  -74.5166 H         1 UNK         0.0784 
     96 H96       -73.3733   25.1641  -76.2333 H         1 UNK         0.3213 
     97 H97       -74.0734   25.5032  -79.7338 H         1 UNK         0.0855 
     98 H98       -74.4169   23.2176  -77.7165 H         1 UNK         0.0814 
     99 H99       -73.6953   23.0918  -79.3111 H         1 UNK         0.0814 
    100 H100      -75.4018   23.4740  -79.1568 H         1 UNK         0.0814 
    101 H101      -75.7090   25.3682  -77.3578 H         1 UNK         0.3105 
    102 H102      -76.0018   28.8537  -76.8408 H         1 UNK         0.0547 
    103 H103      -77.5049   28.5397  -78.8076 H         1 UNK         0.0837 
    104 H104      -78.0286   26.9855  -78.1753 H         1 UNK         0.0837 
    105 H105      -78.4090   28.4741  -77.3048 H         1 UNK         0.0837 
    106 H106      -77.4599   26.6585  -75.7570 H         1 UNK         0.3020 
    107 H107      -75.1316   25.9684  -73.0939 H         1 UNK         0.1245 
    108 H108      -77.9913   27.0256  -73.3467 H         1 UNK         0.0781 
    109 H109      -76.6910   27.7405  -72.4519 H         1 UNK         0.0781 
    110 H110      -77.9237   26.4943  -69.0491 H         1 UNK         0.0836 
    111 H111      -76.3028   26.8177  -69.6095 H         1 UNK         0.0836 
    112 H112      -77.3901   24.4653  -73.8807 H         1 UNK         0.3022 
    113 H113      -75.5203   21.9958  -75.7153 H         1 UNK         0.0747 
    114 H114      -75.2922   21.6540  -73.2739 H         1 UNK         0.0793 
    115 H115      -76.9713   22.0998  -73.0210 H         1 UNK         0.0793 
    116 H116      -76.5704   20.6454  -73.9317 H         1 UNK         0.0793 
    117 H117      -77.4819   21.9924  -76.6719 H         1 UNK         0.3047 
    118 H118      -79.5527   22.1742  -77.2147 H         1 UNK         0.0822 
    119 H119      -81.7096   21.3630  -76.2770 H         1 UNK         0.0807 
    120 H120      -81.2628   21.9507  -74.6768 H         1 UNK         0.0807 
    121 H121      -80.3559   20.6410  -75.4205 H         1 UNK         0.0807 
    122 H122      -81.3023   24.1246  -75.8341 H         1 UNK         0.2946 
    123 H123      -80.4189   26.7875  -77.9636 H         1 UNK         0.1144 
    124 H124      -81.9825   25.5942  -79.5031 H         1 UNK         0.0793 
    125 H125      -82.8142   26.8591  -78.6145 H         1 UNK         0.0793 
    126 H126      -83.0188   25.1697  -78.1477 H         1 UNK         0.0793 
    127 H127      -82.5397   26.4141  -76.0645 H         1 UNK         0.2896 
@<TRIPOS>BOND
     1    1    2 1    
     2    1   67 1    
     3    1   68 1    
     4    1   69 1    
     5    2    3 2    
     6    2    4 am   BACKBONE|DICT|INTERRES
     7    4    5 1    
     8    4   70 1    
     9    5    6 1    
    10    5   65 1    
    11    5   71 1    
    12    6    7 1    
    13    6   72 1    
    14    6   73 1    
    15    7    8 1    
    16    8    9 1    
    17    8   74 1    
    18    8   75 1    
    19    9   10 ar   
    20    9   14 ar   
    21   10   11 ar   
    22   10   76 1    
    23   11   12 ar   
    24   11   48 1    
    25   12   13 ar   
    26   12   77 1    
    27   13   14 ar   
    28   13   15 1    
    29   14   78 1    
    30   15   16 1    
    31   15   79 1    
    32   15   80 1    
    33   16   17 1    
    34   17   18 1    
    35   17   81 1    
    36   17   82 1    
    37   18   19 1    
    38   18   22 1    
    39   18   83 1    
    40   19   20 am   BACKBONE|DICT|INTERRES
    41   19   21 2    
    42   20   84 1    
    43   20   85 1    
    44   22   23 am   BACKBONE|DICT|INTERRES
    45   22   86 1    
    46   23   24 2    
    47   23   25 1    
    48   25   26 1    
    49   25   27 1    
    50   25   87 1    
    51   26   88 1    
    52   26   89 1    
    53   26   90 1    
    54   27   28 am   BACKBONE|DICT|INTERRES
    55   27   91 1    
    56   28   29 2    
    57   28   30 1    
    58   30   31 1    
    59   30   32 1    
    60   30   92 1    
    61   31   93 1    
    62   31   94 1    
    63   31   95 1    
    64   32   33 am   BACKBONE|DICT|INTERRES
    65   32   96 1    
    66   33   34 2    
    67   33   35 1    
    68   35   36 1    
    69   35   37 1    
    70   35   97 1    
    71   36   98 1    
    72   36   99 1    
    73   36  100 1    
    74   37   38 am   BACKBONE|DICT|INTERRES
    75   37  101 1    
    76   38   39 2    
    77   38   40 1    
    78   40   41 1    
    79   40   42 1    
    80   40  102 1    
    81   41  103 1    
    82   41  104 1    
    83   41  105 1    
    84   42   43 am   BACKBONE|DICT|INTERRES
    85   42  106 1    
    86   43   44 2    
    87   43   45 1    
    88   45   46 1    
    89   45   49 1    
    90   45  107 1    
    91   46   47 1    
    92   46  108 1    
    93   46  109 1    
    94   47   48 1    
    95   48  110 1    
    96   48  111 1    
    97   49   50 am   BACKBONE|DICT|INTERRES
    98   49  112 1    
    99   50   51 2    
   100   50   52 1    
   101   52   53 1    
   102   52   54 1    
   103   52  113 1    
   104   53  114 1    
   105   53  115 1    
   106   53  116 1    
   107   54   55 am   BACKBONE|DICT|INTERRES
   108   54  117 1    
   109   55   56 2    
   110   55   57 1    
   111   57   58 1    
   112   57   59 1    
   113   57  118 1    
   114   58  119 1    
   115   58  120 1    
   116   58  121 1    
   117   59   60 am   BACKBONE|DICT|INTERRES
   118   59  122 1    
   119   60   61 2    
   120   60   62 1    
   121   62   63 1    
   122   62   64 1    
   123   62  123 1    
   124   63  124 1    
   125   63  125 1    
   126   63  126 1    
   127   64   65 am   BACKBONE|DICT|INTERRES
   128   64  127 1    
   129   65   66 2    
@<TRIPOS>SUBSTRUCTURE
     1 UNK         1 GROUP             0       ****    0 ROOT    
