@<TRIPOS>MOLECULE
3R135
127   129    1
SMALL
USER_CHARGES


@<TRIPOS>ATOM
      1 CA        -83.3863   23.8210  -71.8653 C.3       0 UNK        -0.1998 
      2 C         -82.7690   25.0527  -72.5090 C.2       0 UNK         0.4909 
      3 O         -83.0870   25.3721  -73.6552 O.2       0 UNK        -0.5240 
      4 N         -81.8924   25.7530  -71.7771 N.am      1 UNK        -0.4739 
      5 CA        -81.2090   26.9644  -72.2417 C.3       1 UNK         0.0864 
      6 C6        -80.5638   27.7411  -71.0671 C.3       11 UNK        -0.0881 
      7 S7        -80.4003   29.5247  -71.4318 S.3       11 UNK        -0.2682 
      8 C8        -78.7036   29.8926  -70.8800 C.3       11 UNK         0.0289 
      9 C9        -77.6519   29.2638  -71.7816 C.ar      11 UNK        -0.0687 
     10 C10       -76.9970   28.0946  -71.3855 C.ar      11 UNK        -0.0823 
     11 C11       -76.0281   27.5119  -72.2047 C.ar      11 UNK        -0.0830 
     12 C12       -75.7108   28.1107  -73.4263 C.ar      11 UNK        -0.1021 
     13 C13       -76.3400   29.2936  -73.8248 C.ar      11 UNK        -0.0753 
     14 C14       -77.3156   29.8626  -73.0002 C.ar      11 UNK        -0.0933 
     15 C15       -75.9878   29.9304  -75.1616 C.3       11 UNK         0.0166 
     16 S16       -74.2296   30.3891  -75.2778 S.3       11 UNK        -0.2615 
     17 C17       -74.1451   31.9701  -74.3573 C.3       11 UNK        -0.0865 
     18 CA        -73.3078   31.9205  -73.0447 C.3       10 UNK         0.0862 
     19 C         -74.1137   31.4156  -71.8147 C.2       10 UNK         0.5551 
     20 N         -73.6090   30.4748  -71.0237 N.am      10 UNK        -0.7319 
     21 O         -75.1961   31.9270  -71.5402 O.2       10 UNK        -0.5018 
     22 N         -72.0125   31.2478  -73.2307 N.am      10 UNK        -0.4509 
     23 C         -70.8690   31.8272  -73.6153 C.2       10 UNK         0.4899 
     24 O         -70.7424   33.0369  -73.8073 O.2       10 UNK        -0.4839 
     25 CA        -69.6495   30.9034  -73.8223 C.3       9 UNK         0.0222 
     26 CB        -68.6849   31.0150  -72.6300 C.3       9 UNK        -0.1966 
     27 N         -70.0138   29.4944  -74.0180 N.am      9 UNK        -0.4218 
     28 C         -70.6009   29.0109  -75.1213 C.2       9 UNK         0.5020 
     29 O         -70.7749   29.6711  -76.1505 O.2       9 UNK        -0.5274 
     30 CA        -71.1152   27.5642  -75.0489 C.3       8 UNK         0.0270 
     31 CB        -71.9866   27.3355  -73.7918 C.3       8 UNK        -0.1976 
     32 N         -71.8769   27.3117  -76.2702 N.am      8 UNK        -0.4313 
     33 C         -72.3489   26.1389  -76.6993 C.2       8 UNK         0.5041 
     34 O         -72.2222   25.0745  -76.0892 O.2       8 UNK        -0.5577 
     35 CA        -73.0617   26.1489  -78.0555 C.3       7 UNK         0.0284 
     36 CB        -72.0648   25.9091  -79.2046 C.3       7 UNK        -0.1958 
     37 N         -74.0860   25.1095  -78.0464 N.am      7 UNK        -0.4454 
     38 C         -75.1652   25.0644  -78.8337 C.2       7 UNK         0.5089 
     39 O         -75.3809   25.8732  -79.7372 O.2       7 UNK        -0.5125 
     40 CA        -76.2017   23.9590  -78.5588 C.3       6 UNK         0.0408 
     41 CB        -75.8037   22.6229  -79.2157 C.3       6 UNK        -0.1791 
     42 N         -76.5371   23.8116  -77.1355 N.am      6 UNK        -0.4762 
     43 C         -75.7918   23.3063  -76.1417 C.2       6 UNK         0.5007 
     44 O         -74.6812   22.8033  -76.3102 O.2       6 UNK        -0.5032 
     45 CA        -76.3548   23.4136  -74.7114 C.3       5 UNK         0.0783 
     46 C46       -75.8843   24.7288  -74.0525 C.3       11 UNK        -0.0857 
     47 S47       -76.2433   24.7569  -72.2670 S.3       11 UNK        -0.2512 
     48 C48       -75.3233   26.2404  -71.7601 C.3       11 UNK         0.0225 
     49 N         -77.8138   23.2715  -74.6615 N.am      5 UNK        -0.4615 
     50 C         -78.4630   22.1160  -74.8535 C.2       4 UNK         0.5053 
     51 O         -77.9050   21.0491  -75.1107 O.2       4 UNK        -0.5105 
     52 CA        -79.9924   22.1546  -74.7315 C.3       4 UNK         0.0263 
     53 CB        -80.4222   22.1019  -73.2571 C.3       4 UNK        -0.1981 
     54 N         -80.5533   23.3429  -75.3765 N.am      4 UNK        -0.4224 
     55 C         -80.7740   23.4389  -76.6961 C.2       3 UNK         0.4895 
     56 O         -80.6072   22.5097  -77.4869 O.2       3 UNK        -0.5091 
     57 CA        -81.2539   24.7967  -77.2391 C.3       3 UNK         0.0250 
     58 CB        -82.7886   24.8380  -77.3113 C.3       3 UNK        -0.1996 
     59 N         -80.7717   25.9398  -76.4612 N.am      3 UNK        -0.4254 
     60 C         -79.4886   26.3232  -76.3899 C.2       2 UNK         0.5004 
     61 O         -78.5749   25.7664  -76.9944 O.2       2 UNK        -0.5226 
     62 CA        -79.1588   27.5027  -75.4607 C.3       2 UNK         0.0269 
     63 CB        -79.2113   28.8238  -76.2440 C.3       2 UNK        -0.1926 
     64 N         -80.0378   27.6014  -74.2929 N.am      2 UNK        -0.4687 
     65 C         -80.1997   26.6476  -73.3662 C.2       1 UNK         0.5165 
     66 O         -79.6199   25.5572  -73.3979 O.2       1 UNK        -0.5079 
     67 H67       -82.7226   23.3836  -71.1196 H         1 UNK         0.0900 
     68 H68       -83.5963   23.0624  -72.6187 H         1 UNK         0.0900 
     69 H69       -84.3258   24.0837  -71.3800 H         1 UNK         0.0900 
     70 H70       -81.6394   25.4266  -70.8555 H         1 UNK         0.2959 
     71 H71       -81.9899   27.5960  -72.6728 H         1 UNK         0.1079 
     72 H72       -81.1943   27.6678  -70.1795 H         1 UNK         0.0837 
     73 H73       -79.6066   27.3027  -70.7832 H         1 UNK         0.0837 
     74 H74       -78.5648   30.9747  -70.8690 H         1 UNK         0.0685 
     75 H75       -78.5787   29.5613  -69.8479 H         1 UNK         0.0685 
     76 H76       -77.2429   27.6327  -70.4394 H         1 UNK         0.1434 
     77 H77       -74.9727   27.6580  -74.0725 H         1 UNK         0.1329 
     78 H78       -77.8149   30.7728  -73.3020 H         1 UNK         0.1335 
     79 H79       -76.2054   29.2123  -75.9530 H         1 UNK         0.0680 
     80 H80       -76.6082   30.8050  -75.3626 H         1 UNK         0.0680 
     81 H81       -75.1510   32.3500  -74.1697 H         1 UNK         0.1032 
     82 H82       -73.6898   32.6985  -75.0296 H         1 UNK         0.1032 
     83 H83       -73.0932   32.9571  -72.7779 H         1 UNK         0.0461 
     84 H84       -74.1507   30.1733  -70.2298 H         1 UNK         0.3453 
     85 H85       -72.6901   30.0964  -71.1744 H         1 UNK         0.3453 
     86 H86       -72.0326   30.2455  -73.1320 H         1 UNK         0.2984 
     87 H87       -69.1257   31.2487  -74.7163 H         1 UNK         0.0554 
     88 H88       -67.7833   30.4236  -72.7907 H         1 UNK         0.0847 
     89 H89       -69.1473   30.6796  -71.7007 H         1 UNK         0.0847 
     90 H90       -68.3683   32.0483  -72.4802 H         1 UNK         0.0847 
     91 H91       -69.8748   28.8770  -73.2306 H         1 UNK         0.3141 
     92 H92       -70.2551   26.8921  -75.0311 H         1 UNK         0.0743 
     93 H93       -71.3906   27.3814  -72.8802 H         1 UNK         0.0784 
     94 H94       -72.7703   28.0875  -73.7074 H         1 UNK         0.0784 
     95 H95       -72.4631   26.3559  -73.7980 H         1 UNK         0.0784 
     96 H96       -71.9711   28.1434  -76.8446 H         1 UNK         0.3213 
     97 H97       -73.5459   27.1193  -78.1876 H         1 UNK         0.0855 
     98 H98       -71.2824   26.6690  -79.2093 H         1 UNK         0.0814 
     99 H99       -72.5575   25.9480  -80.1762 H         1 UNK         0.0814 
    100 H100      -71.5770   24.9376  -79.1151 H         1 UNK         0.0814 
    101 H101      -73.9763   24.4061  -77.3186 H         1 UNK         0.3105 
    102 H102      -77.1309   24.2817  -79.0316 H         1 UNK         0.0547 
    103 H103      -75.7078   22.7392  -80.2958 H         1 UNK         0.0837 
    104 H104      -74.8472   22.2504  -78.8488 H         1 UNK         0.0837 
    105 H105      -76.5554   21.8542  -79.0373 H         1 UNK         0.0837 
    106 H106      -77.3987   24.2888  -76.8773 H         1 UNK         0.3020 
    107 H107      -75.9215   22.5822  -74.1498 H         1 UNK         0.1245 
    108 H108      -76.3667   25.5850  -74.5269 H         1 UNK         0.0781 
    109 H109      -74.8078   24.8633  -74.1824 H         1 UNK         0.0781 
    110 H110      -74.3081   26.2033  -72.1562 H         1 UNK         0.0836 
    111 H111      -75.2216   26.2359  -70.6739 H         1 UNK         0.0836 
    112 H112      -78.3412   24.0926  -74.3874 H         1 UNK         0.3022 
    113 H113      -80.3870   21.2624  -75.2230 H         1 UNK         0.0747 
    114 H114      -81.5027   22.0005  -73.1696 H         1 UNK         0.0793 
    115 H115      -79.9784   21.2429  -72.7520 H         1 UNK         0.0793 
    116 H116      -80.1182   22.9943  -72.7089 H         1 UNK         0.0793 
    117 H117      -80.6787   24.1638  -74.7969 H         1 UNK         0.3047 
    118 H118      -80.8628   24.8971  -78.2541 H         1 UNK         0.0822 
    119 H119      -83.1407   25.7634  -77.7674 H         1 UNK         0.0807 
    120 H120      -83.2423   24.7561  -76.3228 H         1 UNK         0.0807 
    121 H121      -83.1728   24.0143  -77.9147 H         1 UNK         0.0807 
    122 H122      -81.4554   26.4406  -75.9113 H         1 UNK         0.2946 
    123 H123      -78.1420   27.3525  -75.0922 H         1 UNK         0.1144 
    124 H124      -78.9348   29.6708  -75.6168 H         1 UNK         0.0793 
    125 H125      -80.2074   29.0167  -76.6442 H         1 UNK         0.0793 
    126 H126      -78.5196   28.8044  -77.0874 H         1 UNK         0.0793 
    127 H127      -80.5310   28.4751  -74.1747 H         1 UNK         0.2896 
@<TRIPOS>BOND
     1    1    2 1    
     2    1   67 1    
     3    1   68 1    
     4    1   69 1    
     5    2    3 2    
     6    2    4 am   BACKBONE|DICT|INTERRES
     7    4    5 1    
     8    4   70 1    
     9    5    6 1    
    10    5   65 1    
    11    5   71 1    
    12    6    7 1    
    13    6   72 1    
    14    6   73 1    
    15    7    8 1    
    16    8    9 1    
    17    8   74 1    
    18    8   75 1    
    19    9   10 ar   
    20    9   14 ar   
    21   10   11 ar   
    22   10   76 1    
    23   11   12 ar   
    24   11   48 1    
    25   12   13 ar   
    26   12   77 1    
    27   13   14 ar   
    28   13   15 1    
    29   14   78 1    
    30   15   16 1    
    31   15   79 1    
    32   15   80 1    
    33   16   17 1    
    34   17   18 1    
    35   17   81 1    
    36   17   82 1    
    37   18   19 1    
    38   18   22 1    
    39   18   83 1    
    40   19   20 am   BACKBONE|DICT|INTERRES
    41   19   21 2    
    42   20   84 1    
    43   20   85 1    
    44   22   23 am   BACKBONE|DICT|INTERRES
    45   22   86 1    
    46   23   24 2    
    47   23   25 1    
    48   25   26 1    
    49   25   27 1    
    50   25   87 1    
    51   26   88 1    
    52   26   89 1    
    53   26   90 1    
    54   27   28 am   BACKBONE|DICT|INTERRES
    55   27   91 1    
    56   28   29 2    
    57   28   30 1    
    58   30   31 1    
    59   30   32 1    
    60   30   92 1    
    61   31   93 1    
    62   31   94 1    
    63   31   95 1    
    64   32   33 am   BACKBONE|DICT|INTERRES
    65   32   96 1    
    66   33   34 2    
    67   33   35 1    
    68   35   36 1    
    69   35   37 1    
    70   35   97 1    
    71   36   98 1    
    72   36   99 1    
    73   36  100 1    
    74   37   38 am   BACKBONE|DICT|INTERRES
    75   37  101 1    
    76   38   39 2    
    77   38   40 1    
    78   40   41 1    
    79   40   42 1    
    80   40  102 1    
    81   41  103 1    
    82   41  104 1    
    83   41  105 1    
    84   42   43 am   BACKBONE|DICT|INTERRES
    85   42  106 1    
    86   43   44 2    
    87   43   45 1    
    88   45   46 1    
    89   45   49 1    
    90   45  107 1    
    91   46   47 1    
    92   46  108 1    
    93   46  109 1    
    94   47   48 1    
    95   48  110 1    
    96   48  111 1    
    97   49   50 am   BACKBONE|DICT|INTERRES
    98   49  112 1    
    99   50   51 2    
   100   50   52 1    
   101   52   53 1    
   102   52   54 1    
   103   52  113 1    
   104   53  114 1    
   105   53  115 1    
   106   53  116 1    
   107   54   55 am   BACKBONE|DICT|INTERRES
   108   54  117 1    
   109   55   56 2    
   110   55   57 1    
   111   57   58 1    
   112   57   59 1    
   113   57  118 1    
   114   58  119 1    
   115   58  120 1    
   116   58  121 1    
   117   59   60 am   BACKBONE|DICT|INTERRES
   118   59  122 1    
   119   60   61 2    
   120   60   62 1    
   121   62   63 1    
   122   62   64 1    
   123   62  123 1    
   124   63  124 1    
   125   63  125 1    
   126   63  126 1    
   127   64   65 am   BACKBONE|DICT|INTERRES
   128   64  127 1    
   129   65   66 2    
@<TRIPOS>SUBSTRUCTURE
     1 UNK         1 GROUP             0       ****    0 ROOT    
