@<TRIPOS>MOLECULE
3R135
127   129    1
SMALL
USER_CHARGES


@<TRIPOS>ATOM
      1 CA        -85.3878   28.8164  -73.2796 C.3       0 UNK        -0.1998 
      2 C         -84.2615   28.6967  -74.2954 C.2       0 UNK         0.4909 
      3 O         -84.5021   28.8464  -75.4936 O.2       0 UNK        -0.5240 
      4 N         -83.0355   28.4374  -73.8222 N.am      1 UNK        -0.4739 
      5 CA        -81.8281   28.2630  -74.6382 C.3       1 UNK         0.0864 
      6 C6        -80.5557   28.1947  -73.7596 C.3       11 UNK        -0.0881 
      7 S7        -80.1302   29.8053  -73.0153 S.3       11 UNK        -0.2682 
      8 C8        -78.3252   29.8866  -73.3033 C.3       11 UNK         0.0289 
      9 C9        -77.4884   29.2304  -72.2035 C.ar      11 UNK        -0.0687 
     10 C10       -77.8457   27.9970  -71.6461 C.ar      11 UNK        -0.0823 
     11 C11       -77.0825   27.4180  -70.6308 C.ar      11 UNK        -0.0830 
     12 C12       -75.9251   28.0642  -70.1903 C.ar      11 UNK        -0.1021 
     13 C13       -75.5444   29.2915  -70.7409 C.ar      11 UNK        -0.0753 
     14 C14       -76.3318   29.8697  -71.7425 C.ar      11 UNK        -0.0933 
     15 C15       -74.3023   30.0031  -70.2241 C.3       11 UNK         0.0166 
     16 S16       -72.9172   29.8872  -71.3982 S.3       11 UNK        -0.2615 
     17 C17       -72.9057   31.5825  -72.0825 C.3       11 UNK        -0.0865 
     18 CA        -71.8920   31.7857  -73.2375 C.3       10 UNK         0.0862 
     19 C         -70.4141   31.7447  -72.7421 C.2       10 UNK         0.5551 
     20 N         -69.5843   30.8027  -73.1770 N.am      10 UNK        -0.7319 
     21 O         -70.0114   32.5983  -71.9553 O.2       10 UNK        -0.5018 
     22 N         -72.1943   30.9008  -74.3700 N.am      10 UNK        -0.4509 
     23 C         -71.7623   31.0814  -75.6238 C.2       10 UNK         0.4899 
     24 O         -71.1686   32.0934  -76.0001 O.2       10 UNK        -0.4839 
     25 CA        -72.0383   29.9383  -76.6225 C.3       9 UNK         0.0222 
     26 CB        -71.0011   29.8921  -77.7641 C.3       9 UNK        -0.1966 
     27 N         -72.1702   28.6114  -76.0031 N.am      9 UNK        -0.4218 
     28 C         -71.2638   27.9679  -75.2455 C.2       9 UNK         0.5020 
     29 O         -70.1864   28.4588  -74.9042 O.2       9 UNK        -0.5274 
     30 CA        -71.6145   26.5459  -74.7635 C.3       8 UNK         0.0270 
     31 CB        -72.0552   26.5807  -73.2908 C.3       8 UNK        -0.1976 
     32 N         -72.6533   25.8942  -75.5680 N.am      8 UNK        -0.4313 
     33 C         -72.4935   25.5150  -76.8468 C.2       8 UNK         0.5041 
     34 O         -71.4096   25.5524  -77.4309 O.2       8 UNK        -0.5577 
     35 CA        -73.7365   25.0428  -77.6305 C.3       7 UNK         0.0284 
     36 CB        -73.7211   23.5119  -77.7746 C.3       7 UNK        -0.1958 
     37 N         -75.0262   25.4565  -77.0664 N.am      7 UNK        -0.4454 
     38 C         -75.4101   26.7128  -76.7922 C.2       7 UNK         0.5089 
     39 O         -74.7398   27.7091  -77.0639 O.2       7 UNK        -0.5125 
     40 CA        -76.7248   26.8845  -76.0080 C.3       6 UNK         0.0408 
     41 CB        -77.8886   27.1434  -76.9750 C.3       6 UNK        -0.1791 
     42 N         -77.0467   25.7496  -75.1315 N.am      6 UNK        -0.4762 
     43 C         -76.2571   25.2895  -74.1449 C.2       6 UNK         0.5007 
     44 O         -75.1593   25.7770  -73.8750 O.2       6 UNK        -0.5032 
     45 CA        -76.7262   24.0341  -73.3897 C.3       5 UNK         0.0783 
     46 C46       -77.6646   24.3696  -72.2041 C.3       11 UNK        -0.0857 
     47 S47       -76.7197   24.6603  -70.6696 S.3       11 UNK        -0.2512 
     48 C48       -77.5384   26.1246  -69.9706 C.3       11 UNK         0.0225 
     49 N         -77.3342   23.0777  -74.3182 N.am      5 UNK        -0.4615 
     50 C         -76.6916   22.0197  -74.8324 C.2       4 UNK         0.5053 
     51 O         -75.5344   21.7133  -74.5447 O.2       4 UNK        -0.5105 
     52 CA        -77.4569   21.1448  -75.8415 C.3       4 UNK         0.0263 
     53 CB        -78.1330   19.9666  -75.1221 C.3       4 UNK        -0.1981 
     54 N         -78.4597   21.8701  -76.6238 N.am      4 UNK        -0.4224 
     55 C         -78.1926   22.8685  -77.4766 C.2       3 UNK         0.4895 
     56 O         -77.0639   23.3068  -77.6958 O.2       3 UNK        -0.5091 
     57 CA        -79.3992   23.5164  -78.1737 C.3       3 UNK         0.0250 
     58 CB        -79.7760   22.7214  -79.4343 C.3       3 UNK        -0.1996 
     59 N         -80.5904   23.6901  -77.3314 N.am      3 UNK        -0.4254 
     60 C         -80.6311   24.2770  -76.1263 C.2       2 UNK         0.5004 
     61 O         -79.6345   24.6089  -75.4761 O.2       2 UNK        -0.5226 
     62 CA        -82.0305   24.5269  -75.5365 C.3       2 UNK         0.0269 
     63 CB        -82.3725   23.4425  -74.5025 C.3       2 UNK        -0.1926 
     64 N         -82.1154   25.8442  -74.8996 N.am      2 UNK        -0.4687 
     65 C         -81.9158   27.0114  -75.5317 C.2       1 UNK         0.5165 
     66 O         -81.7848   27.1209  -76.7520 O.2       1 UNK        -0.5079 
     67 H67       -85.8462   29.8029  -73.3422 H         1 UNK         0.0900 
     68 H68       -86.1557   28.0701  -73.4815 H         1 UNK         0.0900 
     69 H69       -85.0344   28.6714  -72.2589 H         1 UNK         0.0900 
     70 H70       -82.9018   28.3543  -72.8245 H         1 UNK         0.2959 
     71 H71       -81.7450   29.1244  -75.3052 H         1 UNK         0.1079 
     72 H72       -80.6966   27.4662  -72.9597 H         1 UNK         0.0837 
     73 H73       -79.7018   27.8399  -74.3392 H         1 UNK         0.0837 
     74 H74       -78.0610   30.9422  -73.3829 H         1 UNK         0.0685 
     75 H75       -78.0725   29.4435  -74.2668 H         1 UNK         0.0685 
     76 H76       -78.7333   27.4875  -71.9792 H         1 UNK         0.1434 
     77 H77       -75.3302   27.6173  -69.4052 H         1 UNK         0.1329 
     78 H78       -76.0426   30.8229  -72.1618 H         1 UNK         0.1335 
     79 H79       -74.5377   31.0467  -70.0100 H         1 UNK         0.0680 
     80 H80       -73.9840   29.5683  -69.2754 H         1 UNK         0.0680 
     81 H81       -72.7067   32.2886  -71.2737 H         1 UNK         0.1032 
     82 H82       -73.9077   31.8218  -72.4399 H         1 UNK         0.1032 
     83 H83       -72.0396   32.8062  -73.5964 H         1 UNK         0.0461 
     84 H84       -68.6321   30.7971  -72.8492 H         1 UNK         0.3453 
     85 H85       -69.9001   30.0804  -73.8168 H         1 UNK         0.3453 
     86 H86       -72.6538   30.0330  -74.1366 H         1 UNK         0.2984 
     87 H87       -73.0096   30.1571  -77.0681 H         1 UNK         0.0554 
     88 H88       -70.9945   30.8248  -78.3293 H         1 UNK         0.0847 
     89 H89       -71.2231   29.0905  -78.4688 H         1 UNK         0.0847 
     90 H90       -69.9911   29.7341  -77.3844 H         1 UNK         0.0847 
     91 H91       -73.0373   28.1287  -76.2268 H         1 UNK         0.3141 
     92 H92       -70.7063   25.9439  -74.8344 H         1 UNK         0.0743 
     93 H93       -71.2769   27.0115  -72.6592 H         1 UNK         0.0784 
     94 H94       -72.9539   27.1835  -73.1521 H         1 UNK         0.0784 
     95 H95       -72.2632   25.5796  -72.9128 H         1 UNK         0.0784 
     96 H96       -73.5722   25.8177  -75.1404 H         1 UNK         0.3213 
     97 H97       -73.6664   25.4824  -78.6274 H         1 UNK         0.0855 
     98 H98       -73.8801   23.0153  -76.8163 H         1 UNK         0.0814 
     99 H99       -72.7665   23.1624  -78.1705 H         1 UNK         0.0814 
    100 H100      -74.4949   23.1705  -78.4622 H         1 UNK         0.0814 
    101 H101      -75.6866   24.7116  -76.8717 H         1 UNK         0.3105 
    102 H102      -76.6107   27.7604  -75.3667 H         1 UNK         0.0547 
    103 H103      -78.8344   27.2663  -76.4500 H         1 UNK         0.0837 
    104 H104      -78.0045   26.3263  -77.6850 H         1 UNK         0.0837 
    105 H105      -77.7179   28.0524  -77.5532 H         1 UNK         0.0837 
    106 H106      -77.9445   25.2958  -75.2914 H         1 UNK         0.3020 
    107 H107      -75.8222   23.5795  -72.9768 H         1 UNK         0.1245 
    108 H108      -78.3272   23.5269  -71.9993 H         1 UNK         0.0781 
    109 H109      -78.3238   25.2082  -72.4323 H         1 UNK         0.0781 
    110 H110      -77.3162   26.1683  -68.9033 H         1 UNK         0.0836 
    111 H111      -78.6213   26.0113  -70.0438 H         1 UNK         0.0836 
    112 H112      -78.2664   23.2993  -74.6500 H         1 UNK         0.3022 
    113 H113      -76.7226   20.7422  -76.5426 H         1 UNK         0.0747 
    114 H114      -78.6000   19.2826  -75.8311 H         1 UNK         0.0793 
    115 H115      -77.4051   19.3890  -74.5502 H         1 UNK         0.0793 
    116 H116      -78.9002   20.3055  -74.4247 H         1 UNK         0.0793 
    117 H117      -79.4228   21.5934  -76.5018 H         1 UNK         0.3047 
    118 H118      -79.0902   24.5118  -78.4931 H         1 UNK         0.0822 
    119 H119      -80.5414   23.2362  -80.0155 H         1 UNK         0.0807 
    120 H120      -80.1516   21.7271  -79.1894 H         1 UNK         0.0807 
    121 H121      -78.9116   22.5915  -80.0875 H         1 UNK         0.0807 
    122 H122      -81.4674   23.4345  -77.7624 H         1 UNK         0.2946 
    123 H123      -82.7689   24.4974  -76.3408 H         1 UNK         0.1144 
    124 H124      -81.6666   23.4413  -73.6705 H         1 UNK         0.0793 
    125 H125      -82.3462   22.4494  -74.9531 H         1 UNK         0.0793 
    126 H126      -83.3733   23.5842  -74.0940 H         1 UNK         0.0793 
    127 H127      -82.2169   25.8534  -73.8957 H         1 UNK         0.2896 
@<TRIPOS>BOND
     1    1    2 1    
     2    1   67 1    
     3    1   68 1    
     4    1   69 1    
     5    2    3 2    
     6    2    4 am   BACKBONE|DICT|INTERRES
     7    4    5 1    
     8    4   70 1    
     9    5    6 1    
    10    5   65 1    
    11    5   71 1    
    12    6    7 1    
    13    6   72 1    
    14    6   73 1    
    15    7    8 1    
    16    8    9 1    
    17    8   74 1    
    18    8   75 1    
    19    9   10 ar   
    20    9   14 ar   
    21   10   11 ar   
    22   10   76 1    
    23   11   12 ar   
    24   11   48 1    
    25   12   13 ar   
    26   12   77 1    
    27   13   14 ar   
    28   13   15 1    
    29   14   78 1    
    30   15   16 1    
    31   15   79 1    
    32   15   80 1    
    33   16   17 1    
    34   17   18 1    
    35   17   81 1    
    36   17   82 1    
    37   18   19 1    
    38   18   22 1    
    39   18   83 1    
    40   19   20 am   BACKBONE|DICT|INTERRES
    41   19   21 2    
    42   20   84 1    
    43   20   85 1    
    44   22   23 am   BACKBONE|DICT|INTERRES
    45   22   86 1    
    46   23   24 2    
    47   23   25 1    
    48   25   26 1    
    49   25   27 1    
    50   25   87 1    
    51   26   88 1    
    52   26   89 1    
    53   26   90 1    
    54   27   28 am   BACKBONE|DICT|INTERRES
    55   27   91 1    
    56   28   29 2    
    57   28   30 1    
    58   30   31 1    
    59   30   32 1    
    60   30   92 1    
    61   31   93 1    
    62   31   94 1    
    63   31   95 1    
    64   32   33 am   BACKBONE|DICT|INTERRES
    65   32   96 1    
    66   33   34 2    
    67   33   35 1    
    68   35   36 1    
    69   35   37 1    
    70   35   97 1    
    71   36   98 1    
    72   36   99 1    
    73   36  100 1    
    74   37   38 am   BACKBONE|DICT|INTERRES
    75   37  101 1    
    76   38   39 2    
    77   38   40 1    
    78   40   41 1    
    79   40   42 1    
    80   40  102 1    
    81   41  103 1    
    82   41  104 1    
    83   41  105 1    
    84   42   43 am   BACKBONE|DICT|INTERRES
    85   42  106 1    
    86   43   44 2    
    87   43   45 1    
    88   45   46 1    
    89   45   49 1    
    90   45  107 1    
    91   46   47 1    
    92   46  108 1    
    93   46  109 1    
    94   47   48 1    
    95   48  110 1    
    96   48  111 1    
    97   49   50 am   BACKBONE|DICT|INTERRES
    98   49  112 1    
    99   50   51 2    
   100   50   52 1    
   101   52   53 1    
   102   52   54 1    
   103   52  113 1    
   104   53  114 1    
   105   53  115 1    
   106   53  116 1    
   107   54   55 am   BACKBONE|DICT|INTERRES
   108   54  117 1    
   109   55   56 2    
   110   55   57 1    
   111   57   58 1    
   112   57   59 1    
   113   57  118 1    
   114   58  119 1    
   115   58  120 1    
   116   58  121 1    
   117   59   60 am   BACKBONE|DICT|INTERRES
   118   59  122 1    
   119   60   61 2    
   120   60   62 1    
   121   62   63 1    
   122   62   64 1    
   123   62  123 1    
   124   63  124 1    
   125   63  125 1    
   126   63  126 1    
   127   64   65 am   BACKBONE|DICT|INTERRES
   128   64  127 1    
   129   65   66 2    
@<TRIPOS>SUBSTRUCTURE
     1 UNK         1 GROUP             0       ****    0 ROOT    
