@<TRIPOS>MOLECULE
3R135
127   129    1
SMALL
USER_CHARGES


@<TRIPOS>ATOM
      1 CA        -82.0807   28.0369  -70.2089 C.3       0 UNK        -0.1998 
      2 C         -82.8221   27.6409  -71.4770 C.2       0 UNK         0.4909 
      3 O         -83.8954   27.0429  -71.3998 O.2       0 UNK        -0.5240 
      4 N         -82.2550   27.9681  -72.6453 N.am      1 UNK        -0.4739 
      5 CA        -82.8044   27.6476  -73.9698 C.3       1 UNK         0.0864 
      6 C6        -82.2497   28.6027  -75.0606 C.3       11 UNK        -0.0881 
      7 S7        -80.4420   28.4881  -75.2969 S.3       11 UNK        -0.2682 
      8 C8        -79.8336   29.9245  -74.3638 C.3       11 UNK         0.0289 
      9 C9        -78.4368   29.6517  -73.8303 C.ar      11 UNK        -0.0687 
     10 C10       -78.2733   28.8176  -72.7199 C.ar      11 UNK        -0.0823 
     11 C11       -77.0000   28.5452  -72.2163 C.ar      11 UNK        -0.0830 
     12 C12       -75.8857   29.1194  -72.8312 C.ar      11 UNK        -0.1021 
     13 C13       -76.0312   29.9463  -73.9483 C.ar      11 UNK        -0.0753 
     14 C14       -77.3120   30.2160  -74.4423 C.ar      11 UNK        -0.0933 
     15 C15       -74.7944   30.5121  -74.6276 C.3       11 UNK         0.0166 
     16 S16       -73.9293   31.7036  -73.5633 S.3       11 UNK        -0.2615 
     17 C17       -72.2629   31.7133  -74.3183 C.3       11 UNK        -0.0865 
     18 CA        -71.2053   30.9205  -73.5017 C.3       10 UNK         0.0862 
     19 C         -70.8673   31.6243  -72.1513 C.2       10 UNK         0.5551 
     20 N         -71.1574   31.0318  -70.9992 N.am      10 UNK        -0.7319 
     21 O         -70.3217   32.7253  -72.1551 O.2       10 UNK        -0.5018 
     22 N         -71.5474   29.4889  -73.4180 N.am      10 UNK        -0.4509 
     23 C         -70.7128   28.5152  -73.0293 C.2       10 UNK         0.4899 
     24 O         -69.5385   28.6981  -72.7084 O.2       10 UNK        -0.4839 
     25 CA        -71.2874   27.0904  -73.0144 C.3       9 UNK         0.0222 
     26 CB        -72.3190   26.9101  -71.8905 C.3       9 UNK        -0.1966 
     27 N         -71.8782   26.7265  -74.3048 N.am      9 UNK        -0.4218 
     28 C         -71.1523   26.3719  -75.3765 C.2       9 UNK         0.5020 
     29 O         -69.9219   26.3152  -75.3868 O.2       9 UNK        -0.5274 
     30 CA        -71.9227   26.0148  -76.6519 C.3       8 UNK         0.0270 
     31 CB        -72.5493   24.6151  -76.5369 C.3       8 UNK        -0.1976 
     32 N         -72.9698   26.9960  -76.9221 N.am      8 UNK        -0.4313 
     33 C         -72.8530   28.0336  -77.7598 C.2       8 UNK         0.5041 
     34 O         -71.8176   28.2924  -78.3757 O.2       8 UNK        -0.5577 
     35 CA        -74.0803   28.9539  -77.9421 C.3       7 UNK         0.0284 
     36 CB        -74.3110   29.3194  -79.4238 C.3       7 UNK        -0.1958 
     37 N         -75.3227   28.4554  -77.3310 N.am      7 UNK        -0.4454 
     38 C         -76.0013   27.3406  -77.6372 C.2       7 UNK         0.5089 
     39 O         -75.6740   26.5423  -78.5166 O.2       7 UNK        -0.5125 
     40 CA        -77.2446   27.0668  -76.7758 C.3       6 UNK         0.0408 
     41 CB        -78.4125   26.5928  -77.6587 C.3       6 UNK        -0.1791 
     42 N         -77.0373   26.0846  -75.7062 N.am      6 UNK        -0.4762 
     43 C         -75.9956   25.9449  -74.8673 C.2       6 UNK         0.5007 
     44 O         -74.9626   26.6202  -74.9041 O.2       6 UNK        -0.5032 
     45 CA        -76.1197   24.8214  -73.8199 C.3       5 UNK         0.0783 
     46 C46       -76.9153   25.2732  -72.5680 C.3       11 UNK        -0.0857 
     47 S47       -75.8615   26.1451  -71.3628 S.3       11 UNK        -0.2512 
     48 C48       -76.8308   27.6445  -71.0004 C.3       11 UNK         0.0225 
     49 N         -76.7244   23.6299  -74.4193 N.am      5 UNK        -0.4615 
     50 C         -76.0448   22.5674  -74.8701 C.2       4 UNK         0.5053 
     51 O         -74.8197   22.4658  -74.8117 O.2       4 UNK        -0.5105 
     52 CA        -76.8576   21.4015  -75.4654 C.3       4 UNK         0.0263 
     53 CB        -76.9969   20.2689  -74.4349 C.3       4 UNK        -0.1981 
     54 N         -78.1922   21.7954  -75.9218 N.am      4 UNK        -0.4224 
     55 C         -78.4395   22.4937  -77.0385 C.2       3 UNK         0.4895 
     56 O         -77.5738   22.8097  -77.8539 O.2       3 UNK        -0.5091 
     57 CA        -79.8970   22.9299  -77.2820 C.3       3 UNK         0.0250 
     58 CB        -80.6025   21.9361  -78.2190 C.3       3 UNK        -0.1996 
     59 N         -80.7037   23.1035  -76.0656 N.am      3 UNK        -0.4254 
     60 C         -80.4268   23.9559  -75.0693 C.2       2 UNK         0.5004 
     61 O         -79.3976   24.6321  -75.0098 O.2       2 UNK        -0.5226 
     62 CA        -81.4338   24.0295  -73.9149 C.3       2 UNK         0.0269 
     63 CB        -80.8414   23.3931  -72.6466 C.3       2 UNK        -0.1926 
     64 N         -81.7761   25.4229  -73.6369 N.am      2 UNK        -0.4687 
     65 C         -82.6368   26.1578  -74.3568 C.2       1 UNK         0.5165 
     66 O         -83.2942   25.7017  -75.2942 O.2       1 UNK        -0.5079 
     67 H67       -81.1690   28.5939  -70.4242 H         1 UNK         0.0900 
     68 H68       -81.8095   27.1480  -69.6401 H         1 UNK         0.0900 
     69 H69       -82.7173   28.6610  -69.5823 H         1 UNK         0.0900 
     70 H70       -81.3753   28.4608  -72.6546 H         1 UNK         0.2959 
     71 H71       -83.8829   27.8156  -73.9219 H         1 UNK         0.1079 
     72 H72       -82.7280   28.3938  -76.0195 H         1 UNK         0.0837 
     73 H73       -82.5200   29.6332  -74.8249 H         1 UNK         0.0837 
     74 H74       -79.8421   30.8032  -75.0104 H         1 UNK         0.0685 
     75 H75       -80.4996   30.1487  -73.5297 H         1 UNK         0.0685 
     76 H76       -79.1398   28.3743  -72.2514 H         1 UNK         0.1434 
     77 H77       -74.8996   28.9165  -72.4428 H         1 UNK         0.1329 
     78 H78       -77.4352   30.8555  -75.3056 H         1 UNK         0.1335 
     79 H79       -74.1271   29.6856  -74.8748 H         1 UNK         0.0680 
     80 H80       -75.0529   31.0050  -75.5659 H         1 UNK         0.0680 
     81 H81       -71.9484   32.7523  -74.4351 H         1 UNK         0.1032 
     82 H82       -72.3165   31.3192  -75.3343 H         1 UNK         0.1032 
     83 H83       -70.2787   30.9667  -74.0773 H         1 UNK         0.0461 
     84 H84       -70.9301   31.4947  -70.1335 H         1 UNK         0.3453 
     85 H85       -71.6068   30.1314  -70.9896 H         1 UNK         0.3453 
     86 H86       -72.5013   29.2511  -73.6373 H         1 UNK         0.2984 
     87 H87       -70.4629   26.4043  -72.8075 H         1 UNK         0.0554 
     88 H88       -73.1983   27.5335  -72.0381 H         1 UNK         0.0847 
     89 H89       -71.8920   27.1710  -70.9213 H         1 UNK         0.0847 
     90 H90       -72.6547   25.8749  -71.8256 H         1 UNK         0.0847 
     91 H91       -72.8892   26.7381  -74.3804 H         1 UNK         0.3141 
     92 H92       -71.2124   25.9932  -77.4815 H         1 UNK         0.0743 
     93 H93       -73.2540   24.5493  -75.7077 H         1 UNK         0.0784 
     94 H94       -73.0835   24.3446  -77.4480 H         1 UNK         0.0784 
     95 H95       -71.7828   23.8567  -76.3722 H         1 UNK         0.0784 
     96 H96       -73.8432   26.8793  -76.4145 H         1 UNK         0.3213 
     97 H97       -73.8322   29.8775  -77.4184 H         1 UNK         0.0855 
     98 H98       -73.4412   29.8268  -79.8431 H         1 UNK         0.0814 
     99 H99       -75.1612   29.9913  -79.5399 H         1 UNK         0.0814 
    100 H100      -74.4946   28.4358  -80.0356 H         1 UNK         0.0814 
    101 H101      -75.6733   28.9976  -76.5544 H         1 UNK         0.3105 
    102 H102      -77.5473   27.9980  -76.2956 H         1 UNK         0.0547 
    103 H103      -78.6417   27.3280  -78.4309 H         1 UNK         0.0837 
    104 H104      -78.1790   25.6532  -78.1606 H         1 UNK         0.0837 
    105 H105      -79.3214   26.4404  -77.0780 H         1 UNK         0.0837 
    106 H106      -77.8410   25.4858  -75.5324 H         1 UNK         0.3020 
    107 H107      -75.1037   24.5730  -73.5033 H         1 UNK         0.1245 
    108 H108      -77.3140   24.4021  -72.0455 H         1 UNK         0.0781 
    109 H109      -77.7864   25.8733  -72.8385 H         1 UNK         0.0781 
    110 H110      -76.3256   28.2065  -70.2138 H         1 UNK         0.0836 
    111 H111      -77.7985   27.3499  -70.5913 H         1 UNK         0.0836 
    112 H112      -77.7284   23.6681  -74.5565 H         1 UNK         0.3022 
    113 H113      -76.2990   21.0172  -76.3217 H         1 UNK         0.0747 
    114 H114      -77.5088   19.4054  -74.8602 H         1 UNK         0.0793 
    115 H115      -76.0178   19.9275  -74.0958 H         1 UNK         0.0793 
    116 H116      -77.5529   20.5901  -73.5530 H         1 UNK         0.0793 
    117 H117      -78.9694   21.5629  -75.3210 H         1 UNK         0.3047 
    118 H118      -79.8608   23.8988  -77.7833 H         1 UNK         0.0822 
    119 H119      -81.5978   22.2860  -78.4937 H         1 UNK         0.0807 
    120 H120      -80.7055   20.9517  -77.7606 H         1 UNK         0.0807 
    121 H121      -80.0411   21.8067  -79.1456 H         1 UNK         0.0807 
    122 H122      -81.5634   22.5745  -76.0243 H         1 UNK         0.2946 
    123 H123      -82.3430   23.4877  -74.1861 H         1 UNK         0.1144 
    124 H124      -80.5892   22.3453  -72.8152 H         1 UNK         0.0793 
    125 H125      -81.5512   23.4251  -71.8196 H         1 UNK         0.0793 
    126 H126      -79.9306   23.9003  -72.3251 H         1 UNK         0.0793 
    127 H127      -81.2475   25.8868  -72.9140 H         1 UNK         0.2896 
@<TRIPOS>BOND
     1    1    2 1    
     2    1   67 1    
     3    1   68 1    
     4    1   69 1    
     5    2    3 2    
     6    2    4 am   BACKBONE|DICT|INTERRES
     7    4    5 1    
     8    4   70 1    
     9    5    6 1    
    10    5   65 1    
    11    5   71 1    
    12    6    7 1    
    13    6   72 1    
    14    6   73 1    
    15    7    8 1    
    16    8    9 1    
    17    8   74 1    
    18    8   75 1    
    19    9   10 ar   
    20    9   14 ar   
    21   10   11 ar   
    22   10   76 1    
    23   11   12 ar   
    24   11   48 1    
    25   12   13 ar   
    26   12   77 1    
    27   13   14 ar   
    28   13   15 1    
    29   14   78 1    
    30   15   16 1    
    31   15   79 1    
    32   15   80 1    
    33   16   17 1    
    34   17   18 1    
    35   17   81 1    
    36   17   82 1    
    37   18   19 1    
    38   18   22 1    
    39   18   83 1    
    40   19   20 am   BACKBONE|DICT|INTERRES
    41   19   21 2    
    42   20   84 1    
    43   20   85 1    
    44   22   23 am   BACKBONE|DICT|INTERRES
    45   22   86 1    
    46   23   24 2    
    47   23   25 1    
    48   25   26 1    
    49   25   27 1    
    50   25   87 1    
    51   26   88 1    
    52   26   89 1    
    53   26   90 1    
    54   27   28 am   BACKBONE|DICT|INTERRES
    55   27   91 1    
    56   28   29 2    
    57   28   30 1    
    58   30   31 1    
    59   30   32 1    
    60   30   92 1    
    61   31   93 1    
    62   31   94 1    
    63   31   95 1    
    64   32   33 am   BACKBONE|DICT|INTERRES
    65   32   96 1    
    66   33   34 2    
    67   33   35 1    
    68   35   36 1    
    69   35   37 1    
    70   35   97 1    
    71   36   98 1    
    72   36   99 1    
    73   36  100 1    
    74   37   38 am   BACKBONE|DICT|INTERRES
    75   37  101 1    
    76   38   39 2    
    77   38   40 1    
    78   40   41 1    
    79   40   42 1    
    80   40  102 1    
    81   41  103 1    
    82   41  104 1    
    83   41  105 1    
    84   42   43 am   BACKBONE|DICT|INTERRES
    85   42  106 1    
    86   43   44 2    
    87   43   45 1    
    88   45   46 1    
    89   45   49 1    
    90   45  107 1    
    91   46   47 1    
    92   46  108 1    
    93   46  109 1    
    94   47   48 1    
    95   48  110 1    
    96   48  111 1    
    97   49   50 am   BACKBONE|DICT|INTERRES
    98   49  112 1    
    99   50   51 2    
   100   50   52 1    
   101   52   53 1    
   102   52   54 1    
   103   52  113 1    
   104   53  114 1    
   105   53  115 1    
   106   53  116 1    
   107   54   55 am   BACKBONE|DICT|INTERRES
   108   54  117 1    
   109   55   56 2    
   110   55   57 1    
   111   57   58 1    
   112   57   59 1    
   113   57  118 1    
   114   58  119 1    
   115   58  120 1    
   116   58  121 1    
   117   59   60 am   BACKBONE|DICT|INTERRES
   118   59  122 1    
   119   60   61 2    
   120   60   62 1    
   121   62   63 1    
   122   62   64 1    
   123   62  123 1    
   124   63  124 1    
   125   63  125 1    
   126   63  126 1    
   127   64   65 am   BACKBONE|DICT|INTERRES
   128   64  127 1    
   129   65   66 2    
@<TRIPOS>SUBSTRUCTURE
     1 UNK         1 GROUP             0       ****    0 ROOT    
