@<TRIPOS>MOLECULE
3R135
127   129    1
SMALL
USER_CHARGES


@<TRIPOS>ATOM
      1 CA        -78.4976   23.9341  -70.0776 C.3       0 UNK        -0.1998 
      2 C         -79.4898   24.1719  -71.2055 C.2       0 UNK         0.4909 
      3 O         -79.5092   23.4257  -72.1865 O.2       0 UNK        -0.5240 
      4 N         -80.3208   25.2106  -71.0609 N.am      1 UNK        -0.4739 
      5 CA        -81.3873   25.5663  -72.0007 C.3       1 UNK         0.0864 
      6 C6        -82.4445   26.4915  -71.3307 C.3       11 UNK        -0.0881 
      7 S7        -82.2638   28.3002  -71.5131 S.3       11 UNK        -0.2682 
      8 C8        -80.8043   28.6872  -70.4862 C.3       11 UNK         0.0289 
      9 C9        -79.5748   29.0352  -71.3212 C.ar      11 UNK        -0.0687 
     10 C10       -79.6797   29.9375  -72.3854 C.ar      11 UNK        -0.0823 
     11 C11       -78.5630   30.2837  -73.1491 C.ar      11 UNK        -0.0830 
     12 C12       -77.3166   29.7469  -72.8150 C.ar      11 UNK        -0.1021 
     13 C13       -77.1931   28.8409  -71.7577 C.ar      11 UNK        -0.0753 
     14 C14       -78.3244   28.4866  -71.0139 C.ar      11 UNK        -0.0933 
     15 C15       -75.8314   28.2502  -71.4328 C.3       11 UNK         0.0166 
     16 S16       -74.8129   29.4468  -70.5197 S.3       11 UNK        -0.2615 
     17 C17       -73.1583   28.6900  -70.6456 C.3       11 UNK        -0.0865 
     18 CA        -72.2787   29.3973  -71.7093 C.3       10 UNK         0.0862 
     19 C         -70.8020   28.9370  -71.5995 C.2       10 UNK         0.5551 
     20 N         -69.9237   29.7754  -71.0677 N.am      10 UNK        -0.7319 
     21 O         -70.4610   27.8095  -71.9493 O.2       10 UNK        -0.5018 
     22 N         -72.7927   29.1740  -73.0664 N.am      10 UNK        -0.4509 
     23 C         -72.5265   29.9501  -74.1240 C.2       10 UNK         0.4899 
     24 O         -71.8984   31.0083  -74.0603 O.2       10 UNK        -0.4839 
     25 CA        -73.0580   29.4383  -75.4776 C.3       9 UNK         0.0222 
     26 CB        -72.5719   30.2716  -76.6827 C.3       9 UNK        -0.1966 
     27 N         -72.7855   28.0071  -75.6696 N.am      9 UNK        -0.4218 
     28 C         -71.5809   27.4176  -75.7313 C.2       9 UNK         0.5020 
     29 O         -70.5108   28.0272  -75.7362 O.2       9 UNK        -0.5274 
     30 CA        -71.5541   25.8846  -75.7788 C.3       8 UNK         0.0270 
     31 CB        -71.6265   25.3075  -74.3542 C.3       8 UNK        -0.1976 
     32 N         -72.6477   25.3220  -76.5769 N.am      8 UNK        -0.4313 
     33 C         -72.4716   24.5850  -77.6805 C.2       8 UNK         0.5041 
     34 O         -71.3778   24.3973  -78.2163 O.2       8 UNK        -0.5577 
     35 CA        -73.7096   23.8900  -78.2664 C.3       7 UNK         0.0284 
     36 CB        -74.0358   22.6206  -77.4622 C.3       7 UNK        -0.1958 
     37 N         -74.8975   24.7426  -78.3458 N.am      7 UNK        -0.4454 
     38 C         -75.0748   25.6912  -79.2761 C.2       7 UNK         0.5089 
     39 O         -74.2128   26.0229  -80.0907 O.2       7 UNK        -0.5125 
     40 CA        -76.4605   26.3576  -79.3374 C.3       6 UNK         0.0408 
     41 CB        -77.4923   25.4122  -79.9736 C.3       6 UNK        -0.1791 
     42 N         -76.9407   26.7892  -78.0268 N.am      6 UNK        -0.4762 
     43 C         -76.4368   27.8234  -77.3402 C.2       6 UNK         0.5007 
     44 O         -75.5431   28.5559  -77.7635 O.2       6 UNK        -0.5032 
     45 CA        -77.0009   28.0492  -75.9219 C.3       5 UNK         0.0783 
     46 C46       -78.3124   28.8769  -75.9512 C.3       11 UNK        -0.0857 
     47 S47       -77.9364   30.6650  -75.8810 S.3       11 UNK        -0.2512 
     48 C48       -78.7311   31.2306  -74.3342 C.3       11 UNK         0.0225 
     49 N         -77.1252   26.7971  -75.1687 N.am      5 UNK        -0.4615 
     50 C         -76.0892   25.9958  -74.8815 C.2       4 UNK         0.5053 
     51 O         -74.9197   26.2655  -75.1559 O.2       4 UNK        -0.5105 
     52 CA        -76.3943   24.6526  -74.2086 C.3       4 UNK         0.0263 
     53 CB        -76.3766   24.8131  -72.6852 C.3       4 UNK        -0.1981 
     54 N         -77.6629   24.0705  -74.6576 N.am      4 UNK        -0.4224 
     55 C         -77.8654   23.6283  -75.9093 C.2       3 UNK         0.4895 
     56 O         -76.9962   23.6218  -76.7801 O.2       3 UNK        -0.5091 
     57 CA        -79.2864   23.1764  -76.2764 C.3       3 UNK         0.0250 
     58 CB        -79.6244   21.8259  -75.6249 C.3       3 UNK        -0.1996 
     59 N         -80.2943   24.1721  -75.9133 N.am      3 UNK        -0.4254 
     60 C         -80.3530   25.4226  -76.3975 C.2       2 UNK         0.5004 
     61 O         -79.6019   25.8587  -77.2692 O.2       2 UNK        -0.5226 
     62 CA        -81.4017   26.3609  -75.7729 C.3       2 UNK         0.0269 
     63 CB        -82.6870   26.3692  -76.6147 C.3       2 UNK        -0.1926 
     64 N         -81.7302   26.0261  -74.3823 N.am      2 UNK        -0.4687 
     65 C         -80.8518   26.0514  -73.3692 C.2       1 UNK         0.5165 
     66 O         -79.6739   26.3964  -73.5059 O.2       1 UNK        -0.5079 
     67 H67       -77.8031   24.7694  -69.9931 H         1 UNK         0.0900 
     68 H68       -77.9211   23.0266  -70.2554 H         1 UNK         0.0900 
     69 H69       -79.0184   23.8200  -69.1273 H         1 UNK         0.0900 
     70 H70       -80.2289   25.8080  -70.2538 H         1 UNK         0.2959 
     71 H71       -81.8992   24.6239  -72.2119 H         1 UNK         0.1079 
     72 H72       -83.4211   26.2536  -71.7557 H         1 UNK         0.0837 
     73 H73       -82.5472   26.2558  -70.2700 H         1 UNK         0.0837 
     74 H74       -80.5975   27.8614  -69.8052 H         1 UNK         0.0685 
     75 H75       -81.0437   29.5464  -69.8585 H         1 UNK         0.0685 
     76 H76       -80.6432   30.3652  -72.6261 H         1 UNK         0.1434 
     77 H77       -76.4417   30.0242  -73.3862 H         1 UNK         0.1329 
     78 H78       -78.2278   27.7919  -70.1913 H         1 UNK         0.1335 
     79 H79       -75.3333   27.9669  -72.3608 H         1 UNK         0.0680 
     80 H80       -75.9343   27.3388  -70.8421 H         1 UNK         0.0680 
     81 H81       -72.6960   28.7697  -69.6596 H         1 UNK         0.1032 
     82 H82       -73.2422   27.6207  -70.8497 H         1 UNK         0.1032 
     83 H83       -72.3156   30.4704  -71.5077 H         1 UNK         0.0461 
     84 H84       -68.9631   29.4844  -70.9739 H         1 UNK         0.3453 
     85 H85       -70.1984   30.6996  -70.7724 H         1 UNK         0.3453 
     86 H86       -73.2669   28.2984  -73.2216 H         1 UNK         0.2984 
     87 H87       -74.1414   29.5419  -75.4327 H         1 UNK         0.0554 
     88 H88       -72.8924   31.3100  -76.5915 H         1 UNK         0.0847 
     89 H89       -72.9815   29.8884  -77.6174 H         1 UNK         0.0847 
     90 H90       -71.4850   30.2746  -76.7673 H         1 UNK         0.0847 
     91 H91       -73.6019   27.4000  -75.6297 H         1 UNK         0.3141 
     92 H92       -70.5879   25.5984  -76.1997 H         1 UNK         0.0743 
     93 H93       -70.8163   25.6953  -73.7351 H         1 UNK         0.0784 
     94 H94       -72.5646   25.5597  -73.8583 H         1 UNK         0.0784 
     95 H95       -71.5347   24.2214  -74.3630 H         1 UNK         0.0784 
     96 H96       -73.5884   25.4604  -76.2171 H         1 UNK         0.3213 
     97 H97       -73.4556   23.5768  -79.2818 H         1 UNK         0.0855 
     98 H98       -74.3200   22.8533  -76.4354 H         1 UNK         0.0814 
     99 H99       -73.1745   21.9525  -77.4190 H         1 UNK         0.0814 
    100 H100      -74.8551   22.0633  -77.9167 H         1 UNK         0.0814 
    101 H101      -75.6785   24.4959  -77.7397 H         1 UNK         0.3105 
    102 H102      -76.3786   27.2401  -79.9756 H         1 UNK         0.0547 
    103 H103      -77.6550   24.5209  -79.3662 H         1 UNK         0.0837 
    104 H104      -78.4556   25.9066  -80.1001 H         1 UNK         0.0837 
    105 H105      -77.1645   25.0814  -80.9599 H         1 UNK         0.0837 
    106 H106      -77.7177   26.2689  -77.6265 H         1 UNK         0.3020 
    107 H107      -76.2476   28.6222  -75.3804 H         1 UNK         0.1245 
    108 H108      -78.9545   28.6075  -75.1128 H         1 UNK         0.0781 
    109 H109      -78.9084   28.6696  -76.8423 H         1 UNK         0.0781 
    110 H110      -78.3229   32.2058  -74.0661 H         1 UNK         0.0836 
    111 H111      -79.7896   31.3912  -74.5448 H         1 UNK         0.0836 
    112 H112      -78.0504   26.5395  -74.8422 H         1 UNK         0.3022 
    113 H113      -75.5952   23.9600  -74.4810 H         1 UNK         0.0747 
    114 H114      -75.4143   25.1983  -72.3452 H         1 UNK         0.0793 
    115 H115      -76.5324   23.8558  -72.1894 H         1 UNK         0.0793 
    116 H116      -77.1452   25.5101  -72.3492 H         1 UNK         0.0793 
    117 H117      -78.4255   24.0482  -73.9889 H         1 UNK         0.3047 
    118 H118      -79.3221   23.0505  -77.3608 H         1 UNK         0.0822 
    119 H119      -78.8834   21.0701  -75.8894 H         1 UNK         0.0807 
    120 H120      -80.5943   21.4568  -75.9587 H         1 UNK         0.0807 
    121 H121      -79.6475   21.8926  -74.5364 H         1 UNK         0.0807 
    122 H122      -80.9506   23.9123  -75.1920 H         1 UNK         0.2946 
    123 H123      -80.9808   27.3682  -75.7812 H         1 UNK         0.1144 
    124 H124      -82.4724   26.6391  -77.6499 H         1 UNK         0.0793 
    125 H125      -83.4055   27.0961  -76.2354 H         1 UNK         0.0793 
    126 H126      -83.1702   25.3914  -76.6264 H         1 UNK         0.0793 
    127 H127      -82.6838   25.7483  -74.1982 H         1 UNK         0.2896 
@<TRIPOS>BOND
     1    1    2 1    
     2    1   67 1    
     3    1   68 1    
     4    1   69 1    
     5    2    3 2    
     6    2    4 am   BACKBONE|DICT|INTERRES
     7    4    5 1    
     8    4   70 1    
     9    5    6 1    
    10    5   65 1    
    11    5   71 1    
    12    6    7 1    
    13    6   72 1    
    14    6   73 1    
    15    7    8 1    
    16    8    9 1    
    17    8   74 1    
    18    8   75 1    
    19    9   10 ar   
    20    9   14 ar   
    21   10   11 ar   
    22   10   76 1    
    23   11   12 ar   
    24   11   48 1    
    25   12   13 ar   
    26   12   77 1    
    27   13   14 ar   
    28   13   15 1    
    29   14   78 1    
    30   15   16 1    
    31   15   79 1    
    32   15   80 1    
    33   16   17 1    
    34   17   18 1    
    35   17   81 1    
    36   17   82 1    
    37   18   19 1    
    38   18   22 1    
    39   18   83 1    
    40   19   20 am   BACKBONE|DICT|INTERRES
    41   19   21 2    
    42   20   84 1    
    43   20   85 1    
    44   22   23 am   BACKBONE|DICT|INTERRES
    45   22   86 1    
    46   23   24 2    
    47   23   25 1    
    48   25   26 1    
    49   25   27 1    
    50   25   87 1    
    51   26   88 1    
    52   26   89 1    
    53   26   90 1    
    54   27   28 am   BACKBONE|DICT|INTERRES
    55   27   91 1    
    56   28   29 2    
    57   28   30 1    
    58   30   31 1    
    59   30   32 1    
    60   30   92 1    
    61   31   93 1    
    62   31   94 1    
    63   31   95 1    
    64   32   33 am   BACKBONE|DICT|INTERRES
    65   32   96 1    
    66   33   34 2    
    67   33   35 1    
    68   35   36 1    
    69   35   37 1    
    70   35   97 1    
    71   36   98 1    
    72   36   99 1    
    73   36  100 1    
    74   37   38 am   BACKBONE|DICT|INTERRES
    75   37  101 1    
    76   38   39 2    
    77   38   40 1    
    78   40   41 1    
    79   40   42 1    
    80   40  102 1    
    81   41  103 1    
    82   41  104 1    
    83   41  105 1    
    84   42   43 am   BACKBONE|DICT|INTERRES
    85   42  106 1    
    86   43   44 2    
    87   43   45 1    
    88   45   46 1    
    89   45   49 1    
    90   45  107 1    
    91   46   47 1    
    92   46  108 1    
    93   46  109 1    
    94   47   48 1    
    95   48  110 1    
    96   48  111 1    
    97   49   50 am   BACKBONE|DICT|INTERRES
    98   49  112 1    
    99   50   51 2    
   100   50   52 1    
   101   52   53 1    
   102   52   54 1    
   103   52  113 1    
   104   53  114 1    
   105   53  115 1    
   106   53  116 1    
   107   54   55 am   BACKBONE|DICT|INTERRES
   108   54  117 1    
   109   55   56 2    
   110   55   57 1    
   111   57   58 1    
   112   57   59 1    
   113   57  118 1    
   114   58  119 1    
   115   58  120 1    
   116   58  121 1    
   117   59   60 am   BACKBONE|DICT|INTERRES
   118   59  122 1    
   119   60   61 2    
   120   60   62 1    
   121   62   63 1    
   122   62   64 1    
   123   62  123 1    
   124   63  124 1    
   125   63  125 1    
   126   63  126 1    
   127   64   65 am   BACKBONE|DICT|INTERRES
   128   64  127 1    
   129   65   66 2    
@<TRIPOS>SUBSTRUCTURE
     1 UNK         1 GROUP             0       ****    0 ROOT    
