@<TRIPOS>MOLECULE
3R135
127   129    1
SMALL
USER_CHARGES


@<TRIPOS>ATOM
      1 CA        -78.1613   26.7731  -78.8028 C.3       0 UNK        -0.1998 
      2 C         -78.4747   26.7863  -77.3149 C.2       0 UNK         0.4909 
      3 O         -78.3894   25.7446  -76.6604 O.2       0 UNK        -0.5240 
      4 N         -78.8451   27.9564  -76.7782 N.am      1 UNK        -0.4739 
      5 CA        -79.2319   28.1500  -75.3781 C.3       1 UNK         0.0864 
      6 C6        -79.2983   29.6573  -75.0235 C.3       11 UNK        -0.0881 
      7 S7        -79.7916   30.0174  -73.3009 S.3       11 UNK        -0.2682 
      8 C8        -78.1949   30.3932  -72.4961 C.3       11 UNK         0.0289 
      9 C9        -77.3366   29.1787  -72.1364 C.ar      11 UNK        -0.0687 
     10 C10       -77.8884   27.9122  -71.9017 C.ar      11 UNK        -0.0823 
     11 C11       -77.0819   26.8282  -71.5387 C.ar      11 UNK        -0.0830 
     12 C12       -75.7052   27.0293  -71.3766 C.ar      11 UNK        -0.1021 
     13 C13       -75.1402   28.2885  -71.5929 C.ar      11 UNK        -0.0753 
     14 C14       -75.9591   29.3544  -71.9750 C.ar      11 UNK        -0.0933 
     15 C15       -73.6494   28.5109  -71.3932 C.3       11 UNK         0.0166 
     16 S16       -72.7732   28.5000  -72.9843 S.3       11 UNK        -0.2615 
     17 C17       -71.1195   29.1189  -72.5089 C.3       11 UNK        -0.0865 
     18 CA        -71.0846   30.6113  -72.0695 C.3       10 UNK         0.0862 
     19 C         -69.6242   31.0944  -71.8342 C.2       10 UNK         0.5551 
     20 N         -69.1425   32.1197  -72.5261 N.am      10 UNK        -0.7319 
     21 O         -68.9179   30.5297  -71.0025 O.2       10 UNK        -0.5018 
     22 N         -71.8871   31.4663  -72.9580 N.am      10 UNK        -0.4509 
     23 C         -72.4541   32.6287  -72.6213 C.2       10 UNK         0.4899 
     24 O         -72.2906   33.1789  -71.5324 O.2       10 UNK        -0.4839 
     25 CA        -73.4021   33.2755  -73.6501 C.3       9 UNK         0.0222 
     26 CB        -72.6280   34.1732  -74.6358 C.3       9 UNK        -0.1966 
     27 N         -74.2863   32.3230  -74.3457 N.am      9 UNK        -0.4218 
     28 C         -73.9607   31.3769  -75.2383 C.2       9 UNK         0.5020 
     29 O         -72.8158   31.1892  -75.6612 O.2       9 UNK        -0.5274 
     30 CA        -75.1050   30.4789  -75.7232 C.3       8 UNK         0.0270 
     31 CB        -76.0121   31.2197  -76.7214 C.3       8 UNK        -0.1976 
     32 N         -74.5279   29.3091  -76.3780 N.am      8 UNK        -0.4313 
     33 C         -74.9242   28.0475  -76.2015 C.2       8 UNK         0.5041 
     34 O         -75.8638   27.7077  -75.4795 O.2       8 UNK        -0.5577 
     35 CA        -74.1349   26.9774  -76.9610 C.3       7 UNK         0.0284 
     36 CB        -72.8443   26.6018  -76.2100 C.3       7 UNK        -0.1958 
     37 N         -74.9928   25.8076  -77.0946 N.am      7 UNK        -0.4454 
     38 C         -74.8719   24.8269  -77.9946 C.2       7 UNK         0.5089 
     39 O         -73.9980   24.8009  -78.8631 O.2       7 UNK        -0.5125 
     40 CA        -75.9122   23.6902  -77.9044 C.3       6 UNK         0.0408 
     41 CB        -75.4528   22.3931  -78.6022 C.3       6 UNK        -0.1791 
     42 N         -76.3465   23.4203  -76.5274 N.am      6 UNK        -0.4762 
     43 C         -75.5773   23.0239  -75.4997 C.2       6 UNK         0.5007 
     44 O         -74.3731   22.7823  -75.5896 O.2       6 UNK        -0.5032 
     45 CA        -76.2702   22.8782  -74.1327 C.3       5 UNK         0.0783 
     46 C46       -76.2805   24.2331  -73.3841 C.3       11 UNK        -0.0857 
     47 S47       -76.6926   24.0164  -71.6218 S.3       11 UNK        -0.2512 
     48 C48       -77.7423   25.4719  -71.2876 C.3       11 UNK         0.0225 
     49 N         -77.6118   22.3000  -74.2699 N.am      5 UNK        -0.4615 
     50 C         -77.8521   21.0076  -74.5352 C.2       4 UNK         0.5053 
     51 O         -76.9731   20.1493  -74.6159 O.2       4 UNK        -0.5105 
     52 CA        -79.3209   20.6033  -74.7582 C.3       4 UNK         0.0263 
     53 CB        -79.9893   20.2428  -73.4219 C.3       4 UNK        -0.1981 
     54 N         -80.1027   21.6474  -75.4240 N.am      4 UNK        -0.4224 
     55 C         -79.9162   22.0726  -76.6805 C.2       3 UNK         0.4895 
     56 O         -79.1194   21.5575  -77.4641 O.2       3 UNK        -0.5091 
     57 CA        -80.7086   23.3111  -77.1317 C.3       3 UNK         0.0250 
     58 CB        -82.0369   22.9218  -77.8094 C.3       3 UNK        -0.1996 
     59 N         -80.8924   24.3149  -76.0715 N.am      3 UNK        -0.4254 
     60 C         -81.6833   24.2728  -74.9870 C.2       2 UNK         0.5004 
     61 O         -82.4120   23.3168  -74.7215 O.2       2 UNK        -0.5226 
     62 CA        -81.5997   25.4455  -73.9880 C.3       2 UNK         0.0269 
     63 CB        -81.4593   24.9275  -72.5448 C.3       2 UNK        -0.1926 
     64 N         -80.4880   26.3588  -74.2738 N.am      2 UNK        -0.4687 
     65 C         -80.5544   27.4010  -75.1121 C.2       1 UNK         0.5165 
     66 O         -81.5811   27.7433  -75.7028 O.2       1 UNK        -0.5079 
     67 H67       -78.5870   25.8854  -79.2696 H         1 UNK         0.0900 
     68 H68       -77.0840   26.7614  -78.9611 H         1 UNK         0.0900 
     69 H69       -78.5700   27.6476  -79.3087 H         1 UNK         0.0900 
     70 H70       -78.9231   28.7696  -77.3709 H         1 UNK         0.2959 
     71 H71       -78.4468   27.7043  -74.7628 H         1 UNK         0.1079 
     72 H72       -78.3294   30.1188  -75.2153 H         1 UNK         0.0837 
     73 H73       -80.0054   30.1662  -75.6811 H         1 UNK         0.0837 
     74 H74       -77.6330   31.0786  -73.1322 H         1 UNK         0.0685 
     75 H75       -78.4043   30.9368  -71.5741 H         1 UNK         0.0685 
     76 H76       -78.9557   27.7664  -71.9859 H         1 UNK         0.1434 
     77 H77       -75.0680   26.2102  -71.0744 H         1 UNK         0.1329 
     78 H78       -75.5178   30.3287  -72.1331 H         1 UNK         0.1335 
     79 H79       -73.4992   29.4663  -70.8903 H         1 UNK         0.0680 
     80 H80       -73.2259   27.7455  -70.7411 H         1 UNK         0.0680 
     81 H81       -70.4638   28.9688  -73.3687 H         1 UNK         0.1032 
     82 H82       -70.7237   28.4803  -71.7169 H         1 UNK         0.1032 
     83 H83       -71.5518   30.6620  -71.0850 H         1 UNK         0.0461 
     84 H84       -69.7203   32.5871  -73.2059 H         1 UNK         0.3453 
     85 H85       -68.1967   32.4282  -72.3645 H         1 UNK         0.3453 
     86 H86       -72.0639   31.1088  -73.8923 H         1 UNK         0.2984 
     87 H87       -74.0718   33.9252  -73.0842 H         1 UNK         0.0554 
     88 H88       -73.3029   34.6754  -75.3287 H         1 UNK         0.0847 
     89 H89       -71.9022   33.6107  -75.2234 H         1 UNK         0.0847 
     90 H90       -72.0768   34.9484  -74.1019 H         1 UNK         0.0847 
     91 H91       -75.2563   32.3805  -74.0690 H         1 UNK         0.3141 
     92 H92       -75.6892   30.1712  -74.8532 H         1 UNK         0.0743 
     93 H93       -75.4462   31.6023  -77.5719 H         1 UNK         0.0784 
     94 H94       -76.7903   30.5630  -77.1102 H         1 UNK         0.0784 
     95 H95       -76.5096   32.0681  -76.2503 H         1 UNK         0.0784 
     96 H96       -73.6756   29.4995  -76.8899 H         1 UNK         0.3213 
     97 H97       -73.8909   27.3587  -77.9549 H         1 UNK         0.0855 
     98 H98       -72.2696   25.8517  -76.7533 H         1 UNK         0.0814 
     99 H99       -73.0626   26.2022  -75.2185 H         1 UNK         0.0814 
    100 H100      -72.1990   27.4709  -76.0760 H         1 UNK         0.0814 
    101 H101      -75.7751   25.8025  -76.4480 H         1 UNK         0.3105 
    102 H102      -76.7972   24.0469  -78.4325 H         1 UNK         0.0547 
    103 H103      -74.5294   22.0051  -78.1717 H         1 UNK         0.0837 
    104 H104      -76.2124   21.6148  -78.5271 H         1 UNK         0.0837 
    105 H105      -75.2691   22.5641  -79.6635 H         1 UNK         0.0837 
    106 H106      -77.3162   23.6377  -76.3392 H         1 UNK         0.3020 
    107 H107      -75.6603   22.1797  -73.5541 H         1 UNK         0.1245 
    108 H108      -75.2992   24.7113  -73.4270 H         1 UNK         0.0781 
    109 H109      -76.9765   24.9317  -73.8533 H         1 UNK         0.0781 
    110 H110      -78.6432   25.3816  -71.8921 H         1 UNK         0.0836 
    111 H111      -78.0654   25.4332  -70.2466 H         1 UNK         0.0836 
    112 H112      -78.3922   22.9330  -74.1941 H         1 UNK         0.3022 
    113 H113      -79.3283   19.7181  -75.3978 H         1 UNK         0.0747 
    114 H114      -81.0076   19.8835  -73.5722 H         1 UNK         0.0793 
    115 H115      -79.4393   19.4505  -72.9120 H         1 UNK         0.0793 
    116 H116      -80.0315   21.0980  -72.7460 H         1 UNK         0.0793 
    117 H117      -80.8378   22.0978  -74.8880 H         1 UNK         0.3047 
    118 H118      -80.0950   23.8049  -77.8871 H         1 UNK         0.0822 
    119 H119      -82.5767   23.8020  -78.1586 H         1 UNK         0.0807 
    120 H120      -82.6945   22.3671  -77.1399 H         1 UNK         0.0807 
    121 H121      -81.8550   22.2872  -78.6777 H         1 UNK         0.0807 
    122 H122      -80.2581   25.1034  -76.1462 H         1 UNK         0.2946 
    123 H123      -82.5427   25.9927  -74.0602 H         1 UNK         0.1144 
    124 H124      -81.3350   25.7457  -71.8352 H         1 UNK         0.0793 
    125 H125      -80.6123   24.2495  -72.4369 H         1 UNK         0.0793 
    126 H126      -82.3504   24.3758  -72.2421 H         1 UNK         0.0793 
    127 H127      -79.5927   26.1184  -73.8754 H         1 UNK         0.2896 
@<TRIPOS>BOND
     1    1    2 1    
     2    1   67 1    
     3    1   68 1    
     4    1   69 1    
     5    2    3 2    
     6    2    4 am   BACKBONE|DICT|INTERRES
     7    4    5 1    
     8    4   70 1    
     9    5    6 1    
    10    5   65 1    
    11    5   71 1    
    12    6    7 1    
    13    6   72 1    
    14    6   73 1    
    15    7    8 1    
    16    8    9 1    
    17    8   74 1    
    18    8   75 1    
    19    9   10 ar   
    20    9   14 ar   
    21   10   11 ar   
    22   10   76 1    
    23   11   12 ar   
    24   11   48 1    
    25   12   13 ar   
    26   12   77 1    
    27   13   14 ar   
    28   13   15 1    
    29   14   78 1    
    30   15   16 1    
    31   15   79 1    
    32   15   80 1    
    33   16   17 1    
    34   17   18 1    
    35   17   81 1    
    36   17   82 1    
    37   18   19 1    
    38   18   22 1    
    39   18   83 1    
    40   19   20 am   BACKBONE|DICT|INTERRES
    41   19   21 2    
    42   20   84 1    
    43   20   85 1    
    44   22   23 am   BACKBONE|DICT|INTERRES
    45   22   86 1    
    46   23   24 2    
    47   23   25 1    
    48   25   26 1    
    49   25   27 1    
    50   25   87 1    
    51   26   88 1    
    52   26   89 1    
    53   26   90 1    
    54   27   28 am   BACKBONE|DICT|INTERRES
    55   27   91 1    
    56   28   29 2    
    57   28   30 1    
    58   30   31 1    
    59   30   32 1    
    60   30   92 1    
    61   31   93 1    
    62   31   94 1    
    63   31   95 1    
    64   32   33 am   BACKBONE|DICT|INTERRES
    65   32   96 1    
    66   33   34 2    
    67   33   35 1    
    68   35   36 1    
    69   35   37 1    
    70   35   97 1    
    71   36   98 1    
    72   36   99 1    
    73   36  100 1    
    74   37   38 am   BACKBONE|DICT|INTERRES
    75   37  101 1    
    76   38   39 2    
    77   38   40 1    
    78   40   41 1    
    79   40   42 1    
    80   40  102 1    
    81   41  103 1    
    82   41  104 1    
    83   41  105 1    
    84   42   43 am   BACKBONE|DICT|INTERRES
    85   42  106 1    
    86   43   44 2    
    87   43   45 1    
    88   45   46 1    
    89   45   49 1    
    90   45  107 1    
    91   46   47 1    
    92   46  108 1    
    93   46  109 1    
    94   47   48 1    
    95   48  110 1    
    96   48  111 1    
    97   49   50 am   BACKBONE|DICT|INTERRES
    98   49  112 1    
    99   50   51 2    
   100   50   52 1    
   101   52   53 1    
   102   52   54 1    
   103   52  113 1    
   104   53  114 1    
   105   53  115 1    
   106   53  116 1    
   107   54   55 am   BACKBONE|DICT|INTERRES
   108   54  117 1    
   109   55   56 2    
   110   55   57 1    
   111   57   58 1    
   112   57   59 1    
   113   57  118 1    
   114   58  119 1    
   115   58  120 1    
   116   58  121 1    
   117   59   60 am   BACKBONE|DICT|INTERRES
   118   59  122 1    
   119   60   61 2    
   120   60   62 1    
   121   62   63 1    
   122   62   64 1    
   123   62  123 1    
   124   63  124 1    
   125   63  125 1    
   126   63  126 1    
   127   64   65 am   BACKBONE|DICT|INTERRES
   128   64  127 1    
   129   65   66 2    
@<TRIPOS>SUBSTRUCTURE
     1 UNK         1 GROUP             0       ****    0 ROOT    
