@<TRIPOS>MOLECULE
3R135
127   129    1
SMALL
USER_CHARGES


@<TRIPOS>ATOM
      1 CA        -85.1056   24.4237  -70.1780 C.3       0 UNK        -0.1998 
      2 C         -84.7330   25.4592  -71.2282 C.2       0 UNK         0.4909 
      3 O         -85.5173   25.7129  -72.1429 O.2       0 UNK        -0.5240 
      4 N         -83.5441   26.0620  -71.0991 N.am      1 UNK        -0.4739 
      5 CA        -82.9848   27.0505  -72.0305 C.3       1 UNK         0.0864 
      6 C6        -81.7731   27.8085  -71.4217 C.3       11 UNK        -0.0881 
      7 S7        -80.5631   26.7574  -70.5306 S.3       11 UNK        -0.2682 
      8 C8        -79.2226   26.5159  -71.7387 C.3       11 UNK         0.0289 
      9 C9        -78.2668   27.6981  -71.8053 C.ar      11 UNK        -0.0687 
     10 C10       -78.5430   28.7782  -72.6450 C.ar      11 UNK        -0.0823 
     11 C11       -77.6813   29.8759  -72.7054 C.ar      11 UNK        -0.0830 
     12 C12       -76.5219   29.8835  -71.9228 C.ar      11 UNK        -0.1021 
     13 C13       -76.2108   28.7897  -71.1065 C.ar      11 UNK        -0.0753 
     14 C14       -77.0918   27.7040  -71.0477 C.ar      11 UNK        -0.0933 
     15 C15       -74.9401   28.7812  -70.2658 C.3       11 UNK         0.0166 
     16 S16       -73.4827   28.2315  -71.2176 S.3       11 UNK        -0.2615 
     17 C17       -72.8919   29.8002  -71.9442 C.3       11 UNK        -0.0865 
     18 CA        -73.2471   29.9215  -73.4522 C.3       10 UNK         0.0862 
     19 C         -73.1947   31.3809  -73.9998 C.2       10 UNK         0.5551 
     20 N         -73.3294   31.5698  -75.3062 N.am      10 UNK        -0.7319 
     21 O         -73.0433   32.3435  -73.2512 O.2       10 UNK        -0.5018 
     22 N         -72.5310   28.9507  -74.3015 N.am      10 UNK        -0.4509 
     23 C         -71.2285   29.0023  -74.6145 C.2       10 UNK         0.4899 
     24 O         -70.4337   29.8007  -74.1143 O.2       10 UNK        -0.4839 
     25 CA        -70.7421   28.0184  -75.6984 C.3       9 UNK         0.0222 
     26 CB        -69.2040   27.9696  -75.8250 C.3       9 UNK        -0.1966 
     27 N         -71.2935   26.6663  -75.5638 N.am      9 UNK        -0.4218 
     28 C         -71.1556   25.8282  -74.5225 C.2       9 UNK         0.5020 
     29 O         -70.5164   26.0993  -73.5049 O.2       9 UNK        -0.5274 
     30 CA        -71.8250   24.4447  -74.6316 C.3       8 UNK         0.0270 
     31 CB        -72.6209   24.1045  -73.3574 C.3       8 UNK        -0.1976 
     32 N         -72.7137   24.3636  -75.7961 N.am      8 UNK        -0.4313 
     33 C         -72.4838   23.6172  -76.8842 C.2       8 UNK         0.5041 
     34 O         -71.5239   22.8533  -76.9958 O.2       8 UNK        -0.5577 
     35 CA        -73.4642   23.7396  -78.0655 C.3       7 UNK         0.0284 
     36 CB        -74.4933   22.5967  -78.0542 C.3       7 UNK        -0.1958 
     37 N         -74.1577   25.0275  -78.1857 N.am      7 UNK        -0.4454 
     38 C         -73.5556   26.1890  -78.4832 C.2       7 UNK         0.5089 
     39 O         -72.3354   26.3490  -78.4713 O.2       7 UNK        -0.5125 
     40 CA        -74.4676   27.3677  -78.8541 C.3       6 UNK         0.0408 
     41 CB        -75.1878   27.1090  -80.1880 C.3       6 UNK        -0.1791 
     42 N         -75.4528   27.5966  -77.8028 N.am      6 UNK        -0.4762 
     43 C         -75.2984   28.4750  -76.8025 C.2       6 UNK         0.5007 
     44 O         -74.3697   29.2807  -76.7365 O.2       6 UNK        -0.5032 
     45 CA        -76.3192   28.3914  -75.6436 C.3       5 UNK         0.0783 
     46 C46       -77.5049   29.3662  -75.8570 C.3       11 UNK        -0.0857 
     47 S47       -77.1059   31.0184  -75.1867 S.3       11 UNK        -0.2512 
     48 C48       -78.0219   31.0522  -73.6113 C.3       11 UNK         0.0225 
     49 N         -76.7460   27.0159  -75.3606 N.am      5 UNK        -0.4615 
     50 C         -75.8948   26.0236  -75.0539 C.2       4 UNK         0.5053 
     51 O         -74.6878   26.1978  -74.8906 O.2       4 UNK        -0.5105 
     52 CA        -76.4377   24.5836  -75.0101 C.3       4 UNK         0.0263 
     53 CB        -76.6455   24.1267  -73.5602 C.3       4 UNK        -0.1981 
     54 N         -77.6773   24.3782  -75.7639 N.am      4 UNK        -0.4224 
     55 C         -77.8875   24.6654  -77.0570 C.2       3 UNK         0.4895 
     56 O         -76.9957   25.0477  -77.8178 O.2       3 UNK        -0.5091 
     57 CA        -79.3324   24.5598  -77.5894 C.3       3 UNK         0.0250 
     58 CB        -79.4107   23.5104  -78.7108 C.3       3 UNK        -0.1996 
     59 N         -80.3663   24.2619  -76.5848 N.am      3 UNK        -0.4254 
     60 C         -80.6904   25.0079  -75.5165 C.2       2 UNK         0.5004 
     61 O         -80.1173   26.0617  -75.2297 O.2       2 UNK        -0.5226 
     62 CA        -81.7905   24.4219  -74.6030 C.3       2 UNK         0.0269 
     63 CB        -81.4090   23.0131  -74.1070 C.3       2 UNK        -0.1926 
     64 N         -82.1053   25.2344  -73.4239 N.am      2 UNK        -0.4687 
     65 C         -82.6726   26.4483  -73.4190 C.2       1 UNK         0.5165 
     66 O         -82.9964   27.0628  -74.4368 O.2       1 UNK        -0.5079 
     67 H67       -86.0251   24.7166  -69.6718 H         1 UNK         0.0900 
     68 H68       -85.2690   23.4545  -70.6485 H         1 UNK         0.0900 
     69 H69       -84.3263   24.3079  -69.4249 H         1 UNK         0.0900 
     70 H70       -82.9410   25.8201  -70.3244 H         1 UNK         0.2959 
     71 H71       -83.7673   27.7932  -72.2042 H         1 UNK         0.1079 
     72 H72       -81.2797   28.4200  -72.1745 H         1 UNK         0.0837 
     73 H73       -82.1498   28.5244  -70.6897 H         1 UNK         0.0837 
     74 H74       -78.6768   25.6199  -71.4434 H         1 UNK         0.0685 
     75 H75       -79.6365   26.3102  -72.7235 H         1 UNK         0.0685 
     76 H76       -79.4301   28.7638  -73.2609 H         1 UNK         0.1434 
     77 H77       -75.8562   30.7346  -71.9607 H         1 UNK         0.1329 
     78 H78       -76.8637   26.8622  -70.4084 H         1 UNK         0.1335 
     79 H79       -75.0655   28.1053  -69.4185 H         1 UNK         0.0680 
     80 H80       -74.7672   29.7664  -69.8309 H         1 UNK         0.0680 
     81 H81       -73.3174   30.6274  -71.3748 H         1 UNK         0.1032 
     82 H82       -71.8135   29.8722  -71.7978 H         1 UNK         0.1032 
     83 H83       -74.2970   29.6597  -73.5367 H         1 UNK         0.0461 
     84 H84       -73.3033   32.5043  -75.6801 H         1 UNK         0.3453 
     85 H85       -73.5364   30.7814  -75.9132 H         1 UNK         0.3453 
     86 H86       -73.1072   28.2585  -74.7597 H         1 UNK         0.2984 
     87 H87       -71.1325   28.4030  -76.6420 H         1 UNK         0.0554 
     88 H88       -68.7989   28.9549  -76.0589 H         1 UNK         0.0847 
     89 H89       -68.8927   27.2962  -76.6235 H         1 UNK         0.0847 
     90 H90       -68.7321   27.6358  -74.9004 H         1 UNK         0.0847 
     91 H91       -71.8031   26.3327  -76.3738 H         1 UNK         0.3141 
     92 H92       -71.0166   23.7164  -74.7203 H         1 UNK         0.0743 
     93 H93       -73.1630   23.1648  -73.4630 H         1 UNK         0.0784 
     94 H94       -71.9541   23.9991  -72.5008 H         1 UNK         0.0784 
     95 H95       -73.3399   24.8844  -73.1069 H         1 UNK         0.0784 
     96 H96       -73.5198   24.9831  -75.7641 H         1 UNK         0.3213 
     97 H97       -72.8643   23.6238  -78.9711 H         1 UNK         0.0855 
     98 H98       -75.1570   22.6462  -77.1931 H         1 UNK         0.0814 
     99 H99       -73.9962   21.6260  -78.0236 H         1 UNK         0.0814 
    100 H100      -75.1120   22.6126  -78.9516 H         1 UNK         0.0814 
    101 H101      -75.1753   24.9985  -78.1713 H         1 UNK         0.3105 
    102 H102      -73.8401   28.2522  -78.9836 H         1 UNK         0.0547 
    103 H103      -75.7779   27.9742  -80.4899 H         1 UNK         0.0837 
    104 H104      -74.4710   26.9126  -80.9864 H         1 UNK         0.0837 
    105 H105      -75.8599   26.2516  -80.1341 H         1 UNK         0.0837 
    106 H106      -76.2131   26.9270  -77.7477 H         1 UNK         0.3020 
    107 H107      -75.7917   28.6917  -74.7403 H         1 UNK         0.1245 
    108 H108      -78.4112   28.9968  -75.3784 H         1 UNK         0.0781 
    109 H109      -77.7650   29.4634  -76.9131 H         1 UNK         0.0781 
    110 H110      -79.0921   31.0752  -73.8232 H         1 UNK         0.0836 
    111 H111      -77.7979   31.9864  -73.0944 H         1 UNK         0.0836 
    112 H112      -77.7293   26.8034  -75.4649 H         1 UNK         0.3022 
    113 H113      -75.6735   23.9460  -75.4520 H         1 UNK         0.0747 
    114 H114      -77.4576   24.6735  -73.0865 H         1 UNK         0.0793 
    115 H115      -76.8798   23.0633  -73.5081 H         1 UNK         0.0793 
    116 H116      -75.7488   24.2896  -72.9608 H         1 UNK         0.0793 
    117 H117      -78.4799   24.0882  -75.2262 H         1 UNK         0.3047 
    118 H118      -79.5723   25.5346  -78.0188 H         1 UNK         0.0822 
    119 H119      -78.6895   23.7243  -79.5014 H         1 UNK         0.0807 
    120 H120      -80.3971   23.4961  -79.1748 H         1 UNK         0.0807 
    121 H121      -79.1975   22.5071  -78.3397 H         1 UNK         0.0807 
    122 H122      -80.8792   23.4044  -76.7334 H         1 UNK         0.2946 
    123 H123      -82.7003   24.3497  -75.2034 H         1 UNK         0.1144 
    124 H124      -82.1900   22.5931  -73.4724 H         1 UNK         0.0793 
    125 H125      -80.4835   23.0267  -73.5293 H         1 UNK         0.0793 
    126 H126      -81.2699   22.3134  -74.9316 H         1 UNK         0.0793 
    127 H127      -81.8801   24.8288  -72.5275 H         1 UNK         0.2896 
@<TRIPOS>BOND
     1    1    2 1    
     2    1   67 1    
     3    1   68 1    
     4    1   69 1    
     5    2    3 2    
     6    2    4 am   BACKBONE|DICT|INTERRES
     7    4    5 1    
     8    4   70 1    
     9    5    6 1    
    10    5   65 1    
    11    5   71 1    
    12    6    7 1    
    13    6   72 1    
    14    6   73 1    
    15    7    8 1    
    16    8    9 1    
    17    8   74 1    
    18    8   75 1    
    19    9   10 ar   
    20    9   14 ar   
    21   10   11 ar   
    22   10   76 1    
    23   11   12 ar   
    24   11   48 1    
    25   12   13 ar   
    26   12   77 1    
    27   13   14 ar   
    28   13   15 1    
    29   14   78 1    
    30   15   16 1    
    31   15   79 1    
    32   15   80 1    
    33   16   17 1    
    34   17   18 1    
    35   17   81 1    
    36   17   82 1    
    37   18   19 1    
    38   18   22 1    
    39   18   83 1    
    40   19   20 am   BACKBONE|DICT|INTERRES
    41   19   21 2    
    42   20   84 1    
    43   20   85 1    
    44   22   23 am   BACKBONE|DICT|INTERRES
    45   22   86 1    
    46   23   24 2    
    47   23   25 1    
    48   25   26 1    
    49   25   27 1    
    50   25   87 1    
    51   26   88 1    
    52   26   89 1    
    53   26   90 1    
    54   27   28 am   BACKBONE|DICT|INTERRES
    55   27   91 1    
    56   28   29 2    
    57   28   30 1    
    58   30   31 1    
    59   30   32 1    
    60   30   92 1    
    61   31   93 1    
    62   31   94 1    
    63   31   95 1    
    64   32   33 am   BACKBONE|DICT|INTERRES
    65   32   96 1    
    66   33   34 2    
    67   33   35 1    
    68   35   36 1    
    69   35   37 1    
    70   35   97 1    
    71   36   98 1    
    72   36   99 1    
    73   36  100 1    
    74   37   38 am   BACKBONE|DICT|INTERRES
    75   37  101 1    
    76   38   39 2    
    77   38   40 1    
    78   40   41 1    
    79   40   42 1    
    80   40  102 1    
    81   41  103 1    
    82   41  104 1    
    83   41  105 1    
    84   42   43 am   BACKBONE|DICT|INTERRES
    85   42  106 1    
    86   43   44 2    
    87   43   45 1    
    88   45   46 1    
    89   45   49 1    
    90   45  107 1    
    91   46   47 1    
    92   46  108 1    
    93   46  109 1    
    94   47   48 1    
    95   48  110 1    
    96   48  111 1    
    97   49   50 am   BACKBONE|DICT|INTERRES
    98   49  112 1    
    99   50   51 2    
   100   50   52 1    
   101   52   53 1    
   102   52   54 1    
   103   52  113 1    
   104   53  114 1    
   105   53  115 1    
   106   53  116 1    
   107   54   55 am   BACKBONE|DICT|INTERRES
   108   54  117 1    
   109   55   56 2    
   110   55   57 1    
   111   57   58 1    
   112   57   59 1    
   113   57  118 1    
   114   58  119 1    
   115   58  120 1    
   116   58  121 1    
   117   59   60 am   BACKBONE|DICT|INTERRES
   118   59  122 1    
   119   60   61 2    
   120   60   62 1    
   121   62   63 1    
   122   62   64 1    
   123   62  123 1    
   124   63  124 1    
   125   63  125 1    
   126   63  126 1    
   127   64   65 am   BACKBONE|DICT|INTERRES
   128   64  127 1    
   129   65   66 2    
@<TRIPOS>SUBSTRUCTURE
     1 UNK         1 GROUP             0       ****    0 ROOT    
