@<TRIPOS>MOLECULE
3R135
127   129    1
SMALL
USER_CHARGES


@<TRIPOS>ATOM
      1 CA        -84.5316   29.4013  -72.0433 C.3       0 UNK        -0.1998 
      2 C         -83.9407   28.4692  -73.0904 C.2       0 UNK         0.4909 
      3 O         -84.5544   28.2580  -74.1372 O.2       0 UNK        -0.5240 
      4 N         -82.7577   27.9124  -72.8113 N.am      1 UNK        -0.4739 
      5 CA        -82.0372   26.9577  -73.6576 C.3       1 UNK         0.0864 
      6 C6        -80.8339   27.5820  -74.4347 C.3       11 UNK        -0.0881 
      7 S7        -80.9410   29.3488  -74.9016 S.3       11 UNK        -0.2682 
      8 C8        -80.3253   30.2033  -73.4077 C.3       11 UNK         0.0289 
      9 C9        -78.9505   29.7165  -72.9703 C.ar      11 UNK        -0.0687 
     10 C10       -78.8346   28.7692  -71.9485 C.ar      11 UNK        -0.0823 
     11 C11       -77.5833   28.2765  -71.5699 C.ar      11 UNK        -0.0830 
     12 C12       -76.4359   28.7720  -72.1977 C.ar      11 UNK        -0.1021 
     13 C13       -76.5363   29.7339  -73.2077 C.ar      11 UNK        -0.0753 
     14 C14       -77.7970   30.2015  -73.5911 C.ar      11 UNK        -0.0933 
     15 C15       -75.2911   30.2420  -73.9163 C.3       11 UNK         0.0166 
     16 S16       -74.4848   31.5861  -72.9902 S.3       11 UNK        -0.2615 
     17 C17       -73.2230   30.6768  -72.0297 C.3       11 UNK        -0.0865 
     18 CA        -71.8272   30.7182  -72.7081 C.3       10 UNK         0.0862 
     19 C         -70.7239   30.1045  -71.7956 C.2       10 UNK         0.5551 
     20 N         -69.9367   29.1336  -72.2463 N.am      10 UNK        -0.7319 
     21 O         -70.5719   30.5276  -70.6523 O.2       10 UNK        -0.5018 
     22 N         -71.8756   30.1344  -74.0560 N.am      10 UNK        -0.4509 
     23 C         -71.1109   30.4982  -75.0903 C.2       10 UNK         0.4899 
     24 O         -70.2949   31.4205  -75.0524 O.2       10 UNK        -0.4839 
     25 CA        -71.2989   29.6778  -76.3827 C.3       9 UNK         0.0222 
     26 CB        -70.0969   29.7940  -77.3437 C.3       9 UNK        -0.1966 
     27 N         -71.6301   28.2661  -76.1366 N.am      9 UNK        -0.4218 
     28 C         -70.8936   27.3682  -75.4574 C.2       9 UNK         0.5020 
     29 O         -69.8354   27.6469  -74.8911 O.2       9 UNK        -0.5274 
     30 CA        -71.4230   25.9240  -75.3524 C.3       8 UNK         0.0270 
     31 CB        -71.7361   25.5674  -73.8890 C.3       8 UNK        -0.1976 
     32 N         -72.6060   25.6785  -76.1830 N.am      8 UNK        -0.4313 
     33 C         -72.5666   25.5034  -77.5131 C.2       8 UNK         0.5041 
     34 O         -71.5168   25.4472  -78.1549 O.2       8 UNK        -0.5577 
     35 CA        -73.9017   25.3958  -78.2757 C.3       7 UNK         0.0284 
     36 CB        -74.1535   23.9400  -78.7013 C.3       7 UNK        -0.1958 
     37 N         -75.0740   25.8938  -77.5493 N.am      7 UNK        -0.4454 
     38 C         -75.2586   27.1495  -77.1171 C.2       7 UNK         0.5089 
     39 O         -74.4463   28.0600  -77.2881 O.2       7 UNK        -0.5125 
     40 CA        -76.5253   27.4051  -76.2787 C.3       6 UNK         0.0408 
     41 CB        -77.7449   27.6471  -77.1787 C.3       6 UNK        -0.1791 
     42 N         -76.8080   26.3250  -75.3253 N.am      6 UNK        -0.4762 
     43 C         -75.9662   25.9368  -74.3532 C.2       6 UNK         0.5007 
     44 O         -74.8693   26.4594  -74.1565 O.2       6 UNK        -0.5032 
     45 CA        -76.3827   24.7161  -73.5135 C.3       5 UNK         0.0783 
     46 C46       -77.3585   25.0891  -72.3686 C.3       11 UNK        -0.0857 
     47 S47       -76.4689   25.7761  -70.9301 S.3       11 UNK        -0.2512 
     48 C48       -77.4888   27.2191  -70.4747 C.3       11 UNK         0.0225 
     49 N         -76.9242   23.6705  -74.3830 N.am      5 UNK        -0.4615 
     50 C         -76.1736   22.8330  -75.1127 C.2       4 UNK         0.5053 
     51 O         -74.9447   22.7957  -75.0561 O.2       4 UNK        -0.5105 
     52 CA        -76.9050   21.8816  -76.0796 C.3       4 UNK         0.0263 
     53 CB        -77.1782   20.5318  -75.3974 C.3       4 UNK        -0.1981 
     54 N         -78.1634   22.4230  -76.5998 N.am      4 UNK        -0.4224 
     55 C         -78.2601   23.4985  -77.3943 C.2       3 UNK         0.4895 
     56 O         -77.2895   24.1187  -77.8242 O.2       3 UNK        -0.5091 
     57 CA        -79.6766   24.0081  -77.7193 C.3       3 UNK         0.0250 
     58 CB        -80.1956   23.3547  -79.0097 C.3       3 UNK        -0.1996 
     59 N         -80.6630   23.8240  -76.6456 N.am      3 UNK        -0.4254 
     60 C         -80.5199   24.2347  -75.3775 C.2       2 UNK         0.5004 
     61 O         -79.4970   24.7743  -74.9483 O.2       2 UNK        -0.5226 
     62 CA        -81.7073   23.9749  -74.4345 C.3       2 UNK         0.0269 
     63 CB        -81.9240   22.4611  -74.2555 C.3       2 UNK        -0.1926 
     64 N         -81.4892   24.5547  -73.1049 N.am      2 UNK        -0.4687 
     65 C         -81.5590   25.8337  -72.7068 C.2       1 UNK         0.5165 
     66 O         -81.2383   26.1434  -71.5569 O.2       1 UNK        -0.5079 
     67 H67       -85.4979   29.0256  -71.7080 H         1 UNK         0.0900 
     68 H68       -84.6795   30.3942  -72.4672 H         1 UNK         0.0900 
     69 H69       -83.8841   29.4985  -71.1719 H         1 UNK         0.0900 
     70 H70       -82.3354   28.0435  -71.9014 H         1 UNK         0.2959 
     71 H71       -82.7408   26.5388  -74.3768 H         1 UNK         0.1079 
     72 H72       -79.8824   27.4042  -73.9350 H         1 UNK         0.0837 
     73 H73       -80.7326   27.0523  -75.3809 H         1 UNK         0.0837 
     74 H74       -80.2838   31.2742  -73.6113 H         1 UNK         0.0685 
     75 H75       -81.0454   30.0825  -72.5979 H         1 UNK         0.0685 
     76 H76       -79.7266   28.3933  -71.4667 H         1 UNK         0.1434 
     77 H77       -75.4663   28.3891  -71.9135 H         1 UNK         0.1329 
     78 H78       -77.8837   30.9330  -74.3828 H         1 UNK         0.1335 
     79 H79       -75.5528   30.6168  -74.9070 H         1 UNK         0.0680 
     80 H80       -74.5985   29.4167  -74.0855 H         1 UNK         0.0680 
     81 H81       -73.5406   29.6470  -71.8639 H         1 UNK         0.1032 
     82 H82       -73.1779   31.1370  -71.0407 H         1 UNK         0.1032 
     83 H83       -71.5571   31.7710  -72.8117 H         1 UNK         0.0461 
     84 H84       -69.2276   28.7579  -71.6373 H         1 UNK         0.3453 
     85 H85       -70.0197   28.7822  -73.1934 H         1 UNK         0.3453 
     86 H86       -72.4952   29.3486  -74.1773 H         1 UNK         0.2984 
     87 H87       -72.1665   30.1057  -76.8871 H         1 UNK         0.0554 
     88 H88       -70.2614   29.2201  -78.2556 H         1 UNK         0.0847 
     89 H89       -69.1754   29.4358  -76.8835 H         1 UNK         0.0847 
     90 H90       -69.9303   30.8302  -77.6406 H         1 UNK         0.0847 
     91 H91       -72.5119   27.9581  -76.5356 H         1 UNK         0.3141 
     92 H92       -70.6239   25.2618  -75.6922 H         1 UNK         0.0743 
     93 H93       -70.8252   25.5652  -73.2888 H         1 UNK         0.0784 
     94 H94       -72.4161   26.2857  -73.4311 H         1 UNK         0.0784 
     95 H95       -72.1828   24.5765  -73.8036 H         1 UNK         0.0784 
     96 H96       -73.5052   25.7354  -75.7178 H         1 UNK         0.3213 
     97 H97       -73.8000   26.0021  -79.1781 H         1 UNK         0.0855 
     98 H98       -73.3048   23.5398  -79.2579 H         1 UNK         0.0814 
     99 H99       -75.0274   23.8605  -79.3481 H         1 UNK         0.0814 
    100 H100      -74.3136   23.2921  -77.8388 H         1 UNK         0.0814 
    101 H101      -75.8328   25.2281  -77.4148 H         1 UNK         0.3105 
    102 H102      -76.3573   28.3120  -75.6984 H         1 UNK         0.0547 
    103 H103      -77.5759   28.4997  -77.8374 H         1 UNK         0.0837 
    104 H104      -77.9585   26.7869  -77.8119 H         1 UNK         0.0837 
    105 H105      -78.6356   27.8664  -76.5903 H         1 UNK         0.0837 
    106 H106      -77.6935   25.8396  -75.4161 H         1 UNK         0.3020 
    107 H107      -75.4712   24.3187  -73.0596 H         1 UNK         0.1245 
    108 H108      -77.8824   24.1985  -72.0183 H         1 UNK         0.0781 
    109 H109      -78.1378   25.7730  -72.7109 H         1 UNK         0.0781 
    110 H110      -77.0644   27.6798  -69.5819 H         1 UNK         0.0836 
    111 H111      -78.4813   26.8620  -70.1939 H         1 UNK         0.0836 
    112 H112      -77.9260   23.7067  -74.5408 H         1 UNK         0.3022 
    113 H113      -76.2417   21.7073  -76.9296 H         1 UNK         0.0747 
    114 H114      -77.6167   19.8162  -76.0932 H         1 UNK         0.0793 
    115 H115      -76.2536   20.0906  -75.0221 H         1 UNK         0.0793 
    116 H116      -77.8565   20.6370  -74.5496 H         1 UNK         0.0793 
    117 H117      -79.0153   21.9766  -76.2939 H         1 UNK         0.3047 
    118 H118      -79.5981   25.0823  -77.8941 H         1 UNK         0.0822 
    119 H119      -81.1437   23.7916  -79.3238 H         1 UNK         0.0807 
    120 H120      -80.3431   22.2807  -78.8886 H         1 UNK         0.0807 
    121 H121      -79.4901   23.4962  -79.8300 H         1 UNK         0.0807 
    122 H122      -81.5300   23.3802  -76.9139 H         1 UNK         0.2946 
    123 H123      -82.6080   24.3969  -74.8825 H         1 UNK         0.1144 
    124 H124      -82.7512   22.2583  -73.5746 H         1 UNK         0.0793 
    125 H125      -81.0362   21.9690  -73.8552 H         1 UNK         0.0793 
    126 H126      -82.1684   21.9743  -75.2003 H         1 UNK         0.0793 
    127 H127      -81.1494   23.8979  -72.4189 H         1 UNK         0.2896 
@<TRIPOS>BOND
     1    1    2 1    
     2    1   67 1    
     3    1   68 1    
     4    1   69 1    
     5    2    3 2    
     6    2    4 am   BACKBONE|DICT|INTERRES
     7    4    5 1    
     8    4   70 1    
     9    5    6 1    
    10    5   65 1    
    11    5   71 1    
    12    6    7 1    
    13    6   72 1    
    14    6   73 1    
    15    7    8 1    
    16    8    9 1    
    17    8   74 1    
    18    8   75 1    
    19    9   10 ar   
    20    9   14 ar   
    21   10   11 ar   
    22   10   76 1    
    23   11   12 ar   
    24   11   48 1    
    25   12   13 ar   
    26   12   77 1    
    27   13   14 ar   
    28   13   15 1    
    29   14   78 1    
    30   15   16 1    
    31   15   79 1    
    32   15   80 1    
    33   16   17 1    
    34   17   18 1    
    35   17   81 1    
    36   17   82 1    
    37   18   19 1    
    38   18   22 1    
    39   18   83 1    
    40   19   20 am   BACKBONE|DICT|INTERRES
    41   19   21 2    
    42   20   84 1    
    43   20   85 1    
    44   22   23 am   BACKBONE|DICT|INTERRES
    45   22   86 1    
    46   23   24 2    
    47   23   25 1    
    48   25   26 1    
    49   25   27 1    
    50   25   87 1    
    51   26   88 1    
    52   26   89 1    
    53   26   90 1    
    54   27   28 am   BACKBONE|DICT|INTERRES
    55   27   91 1    
    56   28   29 2    
    57   28   30 1    
    58   30   31 1    
    59   30   32 1    
    60   30   92 1    
    61   31   93 1    
    62   31   94 1    
    63   31   95 1    
    64   32   33 am   BACKBONE|DICT|INTERRES
    65   32   96 1    
    66   33   34 2    
    67   33   35 1    
    68   35   36 1    
    69   35   37 1    
    70   35   97 1    
    71   36   98 1    
    72   36   99 1    
    73   36  100 1    
    74   37   38 am   BACKBONE|DICT|INTERRES
    75   37  101 1    
    76   38   39 2    
    77   38   40 1    
    78   40   41 1    
    79   40   42 1    
    80   40  102 1    
    81   41  103 1    
    82   41  104 1    
    83   41  105 1    
    84   42   43 am   BACKBONE|DICT|INTERRES
    85   42  106 1    
    86   43   44 2    
    87   43   45 1    
    88   45   46 1    
    89   45   49 1    
    90   45  107 1    
    91   46   47 1    
    92   46  108 1    
    93   46  109 1    
    94   47   48 1    
    95   48  110 1    
    96   48  111 1    
    97   49   50 am   BACKBONE|DICT|INTERRES
    98   49  112 1    
    99   50   51 2    
   100   50   52 1    
   101   52   53 1    
   102   52   54 1    
   103   52  113 1    
   104   53  114 1    
   105   53  115 1    
   106   53  116 1    
   107   54   55 am   BACKBONE|DICT|INTERRES
   108   54  117 1    
   109   55   56 2    
   110   55   57 1    
   111   57   58 1    
   112   57   59 1    
   113   57  118 1    
   114   58  119 1    
   115   58  120 1    
   116   58  121 1    
   117   59   60 am   BACKBONE|DICT|INTERRES
   118   59  122 1    
   119   60   61 2    
   120   60   62 1    
   121   62   63 1    
   122   62   64 1    
   123   62  123 1    
   124   63  124 1    
   125   63  125 1    
   126   63  126 1    
   127   64   65 am   BACKBONE|DICT|INTERRES
   128   64  127 1    
   129   65   66 2    
@<TRIPOS>SUBSTRUCTURE
     1 UNK         1 GROUP             0       ****    0 ROOT    
