@<TRIPOS>MOLECULE
3R135
127   129    1
SMALL
USER_CHARGES


@<TRIPOS>ATOM
      1 CA        -78.7800   30.3962  -76.2890 C.3       0 UNK        -0.1998 
      2 C         -79.0562   29.4600  -75.1225 C.2       0 UNK         0.4909 
      3 O         -78.1233   28.8629  -74.5889 O.2       0 UNK        -0.5240 
      4 N         -80.3266   29.3361  -74.7202 N.am      1 UNK        -0.4739 
      5 CA        -80.7669   28.4228  -73.6625 C.3       1 UNK         0.0864 
      6 C6        -81.9500   28.9934  -72.8410 C.3       11 UNK        -0.0881 
      7 S7        -81.5537   30.5812  -72.0299 S.3       11 UNK        -0.2682 
      8 C8        -81.1041   30.0550  -70.3446 C.3       11 UNK         0.0289 
      9 C9        -79.7256   29.4116  -70.3036 C.ar      11 UNK        -0.0687 
     10 C10       -79.5922   28.0202  -70.3202 C.ar      11 UNK        -0.0823 
     11 C11       -78.3273   27.4232  -70.3095 C.ar      11 UNK        -0.0830 
     12 C12       -77.1904   28.2385  -70.2335 C.ar      11 UNK        -0.1021 
     13 C13       -77.3095   29.6311  -70.2177 C.ar      11 UNK        -0.0753 
     14 C14       -78.5806   30.2114  -70.2499 C.ar      11 UNK        -0.0933 
     15 C15       -76.0659   30.5075  -70.1485 C.3       11 UNK         0.0166 
     16 S16       -75.8096   31.4886  -71.6638 S.3       11 UNK        -0.2615 
     17 C17       -75.3898   30.2130  -72.9002 C.3       11 UNK        -0.0865 
     18 CA        -73.8598   30.0886  -73.1347 C.3       10 UNK         0.0862 
     19 C         -73.2059   29.1019  -72.1355 C.2       10 UNK         0.5551 
     20 N         -72.4294   29.6007  -71.1836 N.am      10 UNK        -0.7319 
     21 O         -73.4252   27.8940  -72.1951 O.2       10 UNK        -0.5018 
     22 N         -73.5758   29.6590  -74.5073 N.am      10 UNK        -0.4509 
     23 C         -72.6873   30.2225  -75.3334 C.2       10 UNK         0.4899 
     24 O         -72.0190   31.2186  -75.0502 O.2       10 UNK        -0.4839 
     25 CA        -72.5338   29.5571  -76.7153 C.3       9 UNK         0.0222 
     26 CB        -71.4257   30.1915  -77.5831 C.3       9 UNK        -0.1966 
     27 N         -72.3660   28.1037  -76.6207 N.am      9 UNK        -0.4218 
     28 C         -71.3674   27.4233  -76.0372 C.2       9 UNK         0.5020 
     29 O         -70.3747   27.9540  -75.5364 O.2       9 UNK        -0.5274 
     30 CA        -71.4875   25.8858  -75.9841 C.3       8 UNK         0.0270 
     31 CB        -71.6974   25.4187  -74.5340 C.3       8 UNK        -0.1976 
     32 N         -72.5618   25.3393  -76.8208 N.am      8 UNK        -0.4313 
     33 C         -72.5263   25.2518  -78.1579 C.2       8 UNK         0.5041 
     34 O         -71.5471   25.5619  -78.8373 O.2       8 UNK        -0.5577 
     35 CA        -73.8115   24.7752  -78.8599 C.3       7 UNK         0.0284 
     36 CB        -73.8849   23.2402  -78.8856 C.3       7 UNK        -0.1958 
     37 N         -75.0307   25.3221  -78.2545 N.am      7 UNK        -0.4454 
     38 C         -75.3503   26.6254  -78.2362 C.2       7 UNK         0.5089 
     39 O         -74.6789   27.5030  -78.7781 O.2       7 UNK        -0.5125 
     40 CA        -76.5907   27.0297  -77.4234 C.3       6 UNK         0.0408 
     41 CB        -77.8826   26.7861  -78.2176 C.3       6 UNK        -0.1791 
     42 N         -76.6599   26.3322  -76.1407 N.am      6 UNK        -0.4762 
     43 C         -75.7756   26.4705  -75.1445 C.2       6 UNK         0.5007 
     44 O         -74.8238   27.2471  -75.1889 O.2       6 UNK        -0.5032 
     45 CA        -75.9349   25.5430  -73.9257 C.3       5 UNK         0.0783 
     46 C46       -76.9170   26.1282  -72.8878 C.3       11 UNK        -0.0857 
     47 S47       -76.7877   25.2546  -71.2920 S.3       11 UNK        -0.2512 
     48 C48       -78.2240   25.8989  -70.3645 C.3       11 UNK         0.0225 
     49 N         -76.3107   24.1868  -74.3315 N.am      5 UNK        -0.4615 
     50 C         -75.5156   23.3407  -74.9958 C.2       4 UNK         0.5053 
     51 O         -74.3576   23.6021  -75.3179 O.2       4 UNK        -0.5105 
     52 CA        -76.1297   21.9888  -75.3963 C.3       4 UNK         0.0263 
     53 CB        -76.0492   20.9924  -74.2291 C.3       4 UNK        -0.1981 
     54 N         -77.5202   22.1119  -75.8442 N.am      4 UNK        -0.4224 
     55 C         -77.8939   22.7302  -76.9737 C.2       3 UNK         0.4895 
     56 O         -77.1023   23.2222  -77.7788 O.2       3 UNK        -0.5091 
     57 CA        -79.4088   22.8661  -77.2219 C.3       3 UNK         0.0250 
     58 CB        -79.9749   21.5737  -77.8316 C.3       3 UNK        -0.1996 
     59 N         -80.1921   23.2382  -76.0329 N.am      3 UNK        -0.4254 
     60 C         -79.9647   24.3276  -75.2853 C.2       2 UNK         0.5004 
     61 O         -79.0157   25.0858  -75.4751 O.2       2 UNK        -0.5226 
     62 CA        -80.9161   24.5945  -74.1042 C.3       2 UNK         0.0269 
     63 CB        -80.6118   23.6270  -72.9475 C.3       2 UNK        -0.1926 
     64 N         -80.7885   25.9705  -73.6060 N.am      2 UNK        -0.4687 
     65 C         -81.1441   27.0677  -74.2892 C.2       1 UNK         0.5165 
     66 O         -81.7680   27.0390  -75.3540 O.2       1 UNK        -0.5079 
     67 H67       -78.0346   31.1382  -76.0041 H         1 UNK         0.0900 
     68 H68       -79.6781   30.9233  -76.6103 H         1 UNK         0.0900 
     69 H69       -78.3935   29.8328  -77.1376 H         1 UNK         0.0900 
     70 H70       -81.0622   29.8237  -75.2107 H         1 UNK         0.2959 
     71 H71       -79.9309   28.2569  -72.9817 H         1 UNK         0.1079 
     72 H72       -82.2743   28.2781  -72.0829 H         1 UNK         0.0837 
     73 H73       -82.8158   29.1565  -73.4858 H         1 UNK         0.0837 
     74 H74       -81.1141   30.9294  -69.6921 H         1 UNK         0.0685 
     75 H75       -81.8633   29.3771  -69.9513 H         1 UNK         0.0685 
     76 H76       -80.4789   27.4020  -70.3553 H         1 UNK         0.1434 
     77 H77       -76.2068   27.7899  -70.2045 H         1 UNK         0.1329 
     78 H78       -78.6773   31.2886  -70.2414 H         1 UNK         0.1335 
     79 H79       -75.1758   29.9086  -69.9510 H         1 UNK         0.0680 
     80 H80       -76.1642   31.1910  -69.3041 H         1 UNK         0.0680 
     81 H81       -75.8449   29.2578  -72.6399 H         1 UNK         0.1032 
     82 H82       -75.8837   30.5149  -73.8255 H         1 UNK         0.1032 
     83 H83       -73.4171   31.0753  -72.9835 H         1 UNK         0.0461 
     84 H84       -72.2537   30.5914  -71.1216 H         1 UNK         0.3453 
     85 H85       -72.0048   28.9730  -70.5194 H         1 UNK         0.3453 
     86 H86       -74.0263   28.7883  -74.7906 H         1 UNK         0.2984 
     87 H87       -73.4814   29.7138  -77.2328 H         1 UNK         0.0554 
     88 H88       -71.3646   29.7116  -78.5598 H         1 UNK         0.0847 
     89 H89       -70.4456   30.1184  -77.1110 H         1 UNK         0.0847 
     90 H90       -71.6239   31.2502  -77.7544 H         1 UNK         0.0847 
     91 H91       -73.1480   27.5619  -76.9665 H         1 UNK         0.3141 
     92 H92       -70.5397   25.4756  -76.3387 H         1 UNK         0.0743 
     93 H93       -72.6210   25.8184  -74.1143 H         1 UNK         0.0784 
     94 H94       -71.7397   24.3314  -74.4667 H         1 UNK         0.0784 
     95 H95       -70.8806   25.7518  -73.8924 H         1 UNK         0.0784 
     96 H96       -73.3764   24.9761  -76.3324 H         1 UNK         0.3213 
     97 H97       -73.7710   25.1285  -79.8925 H         1 UNK         0.0855 
     98 H98       -73.9452   22.8198  -77.8818 H         1 UNK         0.0814 
     99 H99       -73.0017   22.8158  -79.3645 H         1 UNK         0.0814 
    100 H100      -74.7548   22.8945  -79.4445 H         1 UNK         0.0814 
    101 H101      -75.6717   24.6586  -77.8286 H         1 UNK         0.3105 
    102 H102      -76.5186   28.0985  -77.2115 H         1 UNK         0.0547 
    103 H103      -78.0169   25.7314  -78.4581 H         1 UNK         0.0837 
    104 H104      -78.7583   27.1128  -77.6559 H         1 UNK         0.0837 
    105 H105      -77.8726   27.3384  -79.1580 H         1 UNK         0.0837 
    106 H106      -77.4706   25.7324  -75.9831 H         1 UNK         0.3020 
    107 H107      -74.9493   25.4876  -73.4570 H         1 UNK         0.1245 
    108 H108      -76.6986   27.1810  -72.7156 H         1 UNK         0.0781 
    109 H109      -77.9439   26.0879  -73.2509 H         1 UNK         0.0781 
    110 H110      -79.1273   25.4740  -70.8033 H         1 UNK         0.0836 
    111 H111      -78.1740   25.5191  -69.3434 H         1 UNK         0.0836 
    112 H112      -77.2671   23.9203  -74.1551 H         1 UNK         0.3022 
    113 H113      -75.5412   21.5906  -76.2257 H         1 UNK         0.0747 
    114 H114      -76.4102   20.0066  -74.5233 H         1 UNK         0.0793 
    115 H115      -75.0186   20.8709  -73.8923 H         1 UNK         0.0793 
    116 H116      -76.6353   21.3233  -73.3707 H         1 UNK         0.0793 
    117 H117      -78.2364   21.7354  -75.2406 H         1 UNK         0.3047 
    118 H118      -79.5397   23.6675  -77.9521 H         1 UNK         0.0822 
    119 H119      -81.0161   21.6980  -78.1298 H         1 UNK         0.0807 
    120 H120      -79.9227   20.7380  -77.1327 H         1 UNK         0.0807 
    121 H121      -79.4176   21.2869  -78.7247 H         1 UNK         0.0807 
    122 H122      -80.9806   22.6478  -75.8088 H         1 UNK         0.2946 
    123 H123      -81.9425   24.4432  -74.4461 H         1 UNK         0.1144 
    124 H124      -81.2696   23.8058  -72.0966 H         1 UNK         0.0793 
    125 H125      -79.5817   23.7210  -72.6009 H         1 UNK         0.0793 
    126 H126      -80.7587   22.5897  -73.2508 H         1 UNK         0.0793 
    127 H127      -80.2728   26.0836  -72.7478 H         1 UNK         0.2896 
@<TRIPOS>BOND
     1    1    2 1    
     2    1   67 1    
     3    1   68 1    
     4    1   69 1    
     5    2    3 2    
     6    2    4 am   BACKBONE|DICT|INTERRES
     7    4    5 1    
     8    4   70 1    
     9    5    6 1    
    10    5   65 1    
    11    5   71 1    
    12    6    7 1    
    13    6   72 1    
    14    6   73 1    
    15    7    8 1    
    16    8    9 1    
    17    8   74 1    
    18    8   75 1    
    19    9   10 ar   
    20    9   14 ar   
    21   10   11 ar   
    22   10   76 1    
    23   11   12 ar   
    24   11   48 1    
    25   12   13 ar   
    26   12   77 1    
    27   13   14 ar   
    28   13   15 1    
    29   14   78 1    
    30   15   16 1    
    31   15   79 1    
    32   15   80 1    
    33   16   17 1    
    34   17   18 1    
    35   17   81 1    
    36   17   82 1    
    37   18   19 1    
    38   18   22 1    
    39   18   83 1    
    40   19   20 am   BACKBONE|DICT|INTERRES
    41   19   21 2    
    42   20   84 1    
    43   20   85 1    
    44   22   23 am   BACKBONE|DICT|INTERRES
    45   22   86 1    
    46   23   24 2    
    47   23   25 1    
    48   25   26 1    
    49   25   27 1    
    50   25   87 1    
    51   26   88 1    
    52   26   89 1    
    53   26   90 1    
    54   27   28 am   BACKBONE|DICT|INTERRES
    55   27   91 1    
    56   28   29 2    
    57   28   30 1    
    58   30   31 1    
    59   30   32 1    
    60   30   92 1    
    61   31   93 1    
    62   31   94 1    
    63   31   95 1    
    64   32   33 am   BACKBONE|DICT|INTERRES
    65   32   96 1    
    66   33   34 2    
    67   33   35 1    
    68   35   36 1    
    69   35   37 1    
    70   35   97 1    
    71   36   98 1    
    72   36   99 1    
    73   36  100 1    
    74   37   38 am   BACKBONE|DICT|INTERRES
    75   37  101 1    
    76   38   39 2    
    77   38   40 1    
    78   40   41 1    
    79   40   42 1    
    80   40  102 1    
    81   41  103 1    
    82   41  104 1    
    83   41  105 1    
    84   42   43 am   BACKBONE|DICT|INTERRES
    85   42  106 1    
    86   43   44 2    
    87   43   45 1    
    88   45   46 1    
    89   45   49 1    
    90   45  107 1    
    91   46   47 1    
    92   46  108 1    
    93   46  109 1    
    94   47   48 1    
    95   48  110 1    
    96   48  111 1    
    97   49   50 am   BACKBONE|DICT|INTERRES
    98   49  112 1    
    99   50   51 2    
   100   50   52 1    
   101   52   53 1    
   102   52   54 1    
   103   52  113 1    
   104   53  114 1    
   105   53  115 1    
   106   53  116 1    
   107   54   55 am   BACKBONE|DICT|INTERRES
   108   54  117 1    
   109   55   56 2    
   110   55   57 1    
   111   57   58 1    
   112   57   59 1    
   113   57  118 1    
   114   58  119 1    
   115   58  120 1    
   116   58  121 1    
   117   59   60 am   BACKBONE|DICT|INTERRES
   118   59  122 1    
   119   60   61 2    
   120   60   62 1    
   121   62   63 1    
   122   62   64 1    
   123   62  123 1    
   124   63  124 1    
   125   63  125 1    
   126   63  126 1    
   127   64   65 am   BACKBONE|DICT|INTERRES
   128   64  127 1    
   129   65   66 2    
@<TRIPOS>SUBSTRUCTURE
     1 UNK         1 GROUP             0       ****    0 ROOT    
