@<TRIPOS>MOLECULE
3R135
127   129    1
SMALL
USER_CHARGES


@<TRIPOS>ATOM
      1 CA        -76.7236   21.5381  -75.2010 C.3       0 UNK        -0.1998 
      2 C         -77.7618   22.5474  -74.7390 C.2       0 UNK         0.4909 
      3 O         -78.4808   23.1018  -75.5682 O.2       0 UNK        -0.5240 
      4 N         -77.8688   22.7689  -73.4204 N.am      1 UNK        -0.4739 
      5 CA        -78.8221   23.6836  -72.7601 C.3       1 UNK         0.0864 
      6 C6        -78.6502   25.1689  -73.1892 C.3       11 UNK        -0.0881 
      7 S7        -76.9659   25.7941  -72.8598 S.3       11 UNK        -0.2682 
      8 C8        -77.2364   26.8491  -71.3966 C.3       11 UNK         0.0289 
      9 C9        -77.0800   28.3218  -71.7441 C.ar      11 UNK        -0.0687 
     10 C10       -78.0089   28.9579  -72.5715 C.ar      11 UNK        -0.0823 
     11 C11       -77.8306   30.2946  -72.9504 C.ar      11 UNK        -0.0830 
     12 C12       -76.7313   31.0021  -72.4482 C.ar      11 UNK        -0.1021 
     13 C13       -75.8037   30.3870  -71.6000 C.ar      11 UNK        -0.0753 
     14 C14       -75.9929   29.0455  -71.2487 C.ar      11 UNK        -0.0933 
     15 C15       -74.6049   31.1771  -71.0736 C.3       11 UNK         0.0166 
     16 S16       -73.0570   30.2208  -71.1513 S.3       11 UNK        -0.2615 
     17 C17       -71.7705   31.4446  -70.7062 C.3       11 UNK        -0.0865 
     18 CA        -70.8283   31.8059  -71.8909 C.3       10 UNK         0.0862 
     19 C         -69.6205   32.6462  -71.3949 C.2       10 UNK         0.5551 
     20 N         -69.7019   33.9664  -71.4879 N.am      10 UNK        -0.7319 
     21 O         -68.6377   32.1129  -70.8830 O.2       10 UNK        -0.5018 
     22 N         -70.4493   30.6023  -72.6424 N.am      10 UNK        -0.4509 
     23 C         -69.6924   30.5153  -73.7433 C.2       10 UNK         0.4899 
     24 O         -69.0529   31.4452  -74.2340 O.2       10 UNK        -0.4839 
     25 CA        -69.7285   29.1495  -74.4596 C.3       9 UNK         0.0222 
     26 CB        -68.6844   28.1918  -73.8653 C.3       9 UNK        -0.1966 
     27 N         -71.0611   28.5348  -74.3884 N.am      9 UNK        -0.4218 
     28 C         -72.1605   29.0440  -74.9600 C.2       9 UNK         0.5020 
     29 O         -72.1374   29.9495  -75.7961 O.2       9 UNK        -0.5274 
     30 CA        -73.5048   28.4643  -74.4880 C.3       8 UNK         0.0270 
     31 CB        -74.6752   29.4087  -74.7943 C.3       8 UNK        -0.1976 
     32 N         -73.7841   27.1433  -75.0495 N.am      8 UNK        -0.4313 
     33 C         -73.1992   26.0087  -74.6397 C.2       8 UNK         0.5041 
     34 O         -72.3103   25.9862  -73.7852 O.2       8 UNK        -0.5577 
     35 CA        -73.6764   24.6803  -75.2566 C.3       7 UNK         0.0284 
     36 CB        -73.9267   23.6174  -74.1713 C.3       7 UNK        -0.1958 
     37 N         -74.8897   24.8355  -76.0677 N.am      7 UNK        -0.4454 
     38 C         -74.9120   24.8686  -77.4068 C.2       7 UNK         0.5089 
     39 O         -73.9112   24.7304  -78.1104 O.2       7 UNK        -0.5125 
     40 CA        -76.2708   25.1143  -78.0894 C.3       6 UNK         0.0408 
     41 CB        -76.8620   23.8019  -78.6263 C.3       6 UNK        -0.1791 
     42 N         -77.2634   25.7981  -77.2508 N.am      6 UNK        -0.4762 
     43 C         -77.1731   27.0872  -76.8844 C.2       6 UNK         0.5007 
     44 O         -76.1768   27.7728  -77.1142 O.2       6 UNK        -0.5032 
     45 CA        -78.3896   27.7036  -76.1543 C.3       5 UNK         0.0783 
     46 C46       -78.3553   29.2593  -76.1020 C.3       11 UNK        -0.0857 
     47 S47       -79.7011   29.9406  -75.0689 S.3       11 UNK        -0.2512 
     48 C48       -78.8051   31.0121  -73.8868 C.3       11 UNK         0.0225 
     49 N         -79.6630   27.1797  -76.6710 N.am      5 UNK        -0.4615 
     50 C         -80.1685   27.3575  -77.8990 C.2       4 UNK         0.5053 
     51 O         -79.5692   27.9231  -78.8148 O.2       4 UNK        -0.5105 
     52 CA        -81.5910   26.8080  -78.1349 C.3       4 UNK         0.0263 
     53 CB        -82.1901   27.2779  -79.4738 C.3       4 UNK        -0.1981 
     54 N         -81.6516   25.3447  -78.0811 N.am      4 UNK        -0.4224 
     55 C         -81.5452   24.6028  -76.9721 C.2       3 UNK         0.4895 
     56 O         -81.3771   25.0889  -75.8502 O.2       3 UNK        -0.5091 
     57 CA        -81.6469   23.0780  -77.1564 C.3       3 UNK         0.0250 
     58 CB        -80.6388   22.5581  -78.1984 C.3       3 UNK        -0.1996 
     59 N         -81.3807   22.4116  -75.8843 N.am      3 UNK        -0.4254 
     60 C         -82.3096   21.9388  -75.0421 C.2       2 UNK         0.5004 
     61 O         -83.5129   21.8954  -75.3017 O.2       2 UNK        -0.5226 
     62 CA        -81.8208   21.4209  -73.6749 C.3       2 UNK         0.0269 
     63 CB        -81.7467   19.8852  -73.6756 C.3       2 UNK        -0.1926 
     64 N         -80.5117   21.9625  -73.3001 N.am      2 UNK        -0.4687 
     65 C         -80.2952   23.2191  -72.8826 C.2       1 UNK         0.5165 
     66 O         -81.2078   23.9940  -72.5930 O.2       1 UNK        -0.5079 
     67 H67       -76.1424   21.1408  -74.3698 H         1 UNK         0.0900 
     68 H68       -77.2131   20.7041  -75.7025 H         1 UNK         0.0900 
     69 H69       -76.0374   22.0009  -75.9082 H         1 UNK         0.0900 
     70 H70       -77.2511   22.2758  -72.7904 H         1 UNK         0.2959 
     71 H71       -78.6007   23.6272  -71.6932 H         1 UNK         0.1079 
     72 H72       -79.3752   25.8107  -72.6863 H         1 UNK         0.0837 
     73 H73       -78.8614   25.2784  -74.2526 H         1 UNK         0.0837 
     74 H74       -78.2194   26.6764  -70.9570 H         1 UNK         0.0685 
     75 H75       -76.5136   26.5593  -70.6321 H         1 UNK         0.0685 
     76 H76       -78.8572   28.3961  -72.9349 H         1 UNK         0.1434 
     77 H77       -76.5916   32.0378  -72.7274 H         1 UNK         0.1329 
     78 H78       -75.2797   28.5568  -70.5997 H         1 UNK         0.1335 
     79 H79       -74.7951   31.4695  -70.0411 H         1 UNK         0.0680 
     80 H80       -74.4746   32.0960  -71.6458 H         1 UNK         0.0680 
     81 H81       -72.2409   32.3453  -70.3073 H         1 UNK         0.1032 
     82 H82       -71.1955   31.0180  -69.8814 H         1 UNK         0.1032 
     83 H83       -71.3997   32.4194  -72.5903 H         1 UNK         0.0461 
     84 H84       -70.5086   34.4124  -71.8968 H         1 UNK         0.3453 
     85 H85       -68.9343   34.5292  -71.1553 H         1 UNK         0.3453 
     86 H86       -70.9236   29.7652  -72.3391 H         1 UNK         0.2984 
     87 H87       -69.4857   29.3130  -75.5116 H         1 UNK         0.0554 
     88 H88       -67.6840   28.6218  -73.9256 H         1 UNK         0.0847 
     89 H89       -68.6620   27.2447  -74.4048 H         1 UNK         0.0847 
     90 H90       -68.8833   27.9753  -72.8151 H         1 UNK         0.0847 
     91 H91       -71.1795   27.7151  -73.8009 H         1 UNK         0.3141 
     92 H92       -73.4570   28.3627  -73.4024 H         1 UNK         0.0743 
     93 H93       -74.7945   29.5816  -75.8636 H         1 UNK         0.0784 
     94 H94       -75.6073   29.0028  -74.4050 H         1 UNK         0.0784 
     95 H95       -74.5213   30.3806  -74.3242 H         1 UNK         0.0784 
     96 H96       -74.4718   27.1061  -75.7915 H         1 UNK         0.3213 
     97 H97       -72.8516   24.3238  -75.8765 H         1 UNK         0.0855 
     98 H98       -74.7767   23.8722  -73.5395 H         1 UNK         0.0814 
     99 H99       -73.0600   23.5021  -73.5190 H         1 UNK         0.0814 
    100 H100      -74.1124   22.6413  -74.6152 H         1 UNK         0.0814 
    101 H101      -75.7576   24.9769  -75.5694 H         1 UNK         0.3105 
    102 H102      -76.0761   25.7578  -78.9502 H         1 UNK         0.0547 
    103 H103      -76.1539   23.2956  -79.2837 H         1 UNK         0.0837 
    104 H104      -77.1103   23.1082  -77.8247 H         1 UNK         0.0837 
    105 H105      -77.7654   23.9836  -79.2082 H         1 UNK         0.0837 
    106 H106      -78.0905   25.2722  -77.0003 H         1 UNK         0.3020 
    107 H107      -78.3049   27.3542  -75.1267 H         1 UNK         0.1245 
    108 H108      -78.4381   29.6835  -77.1034 H         1 UNK         0.0781 
    109 H109      -77.4029   29.6135  -75.7100 H         1 UNK         0.0781 
    110 H110      -79.5397   31.5388  -73.2765 H         1 UNK         0.0836 
    111 H111      -78.2766   31.7769  -74.4586 H         1 UNK         0.0836 
    112 H112      -80.2224   26.6293  -76.0248 H         1 UNK         0.3022 
    113 H113      -82.2222   27.2062  -77.3374 H         1 UNK         0.0747 
    114 H114      -83.2242   26.9510  -79.5831 H         1 UNK         0.0793 
    115 H115      -81.6254   26.8982  -80.3260 H         1 UNK         0.0793 
    116 H116      -82.1889   28.3667  -79.5409 H         1 UNK         0.0793 
    117 H117      -81.7668   24.8730  -78.9661 H         1 UNK         0.3047 
    118 H118      -82.6573   22.8476  -77.5004 H         1 UNK         0.0822 
    119 H119      -80.6657   21.4702  -78.2630 H         1 UNK         0.0807 
    120 H120      -79.6183   22.8481  -77.9507 H         1 UNK         0.0807 
    121 H121      -80.8558   22.9396  -79.1962 H         1 UNK         0.0807 
    122 H122      -80.4238   22.4921  -75.5564 H         1 UNK         0.2946 
    123 H123      -82.5548   21.7315  -72.9276 H         1 UNK         0.1144 
    124 H124      -81.4632   19.5010  -72.6957 H         1 UNK         0.0793 
    125 H125      -81.0249   19.5153  -74.4048 H         1 UNK         0.0793 
    126 H126      -82.7148   19.4485  -73.9251 H         1 UNK         0.0793 
    127 H127      -79.7061   21.3852  -73.4916 H         1 UNK         0.2896 
@<TRIPOS>BOND
     1    1    2 1    
     2    1   67 1    
     3    1   68 1    
     4    1   69 1    
     5    2    3 2    
     6    2    4 am   BACKBONE|DICT|INTERRES
     7    4    5 1    
     8    4   70 1    
     9    5    6 1    
    10    5   65 1    
    11    5   71 1    
    12    6    7 1    
    13    6   72 1    
    14    6   73 1    
    15    7    8 1    
    16    8    9 1    
    17    8   74 1    
    18    8   75 1    
    19    9   10 ar   
    20    9   14 ar   
    21   10   11 ar   
    22   10   76 1    
    23   11   12 ar   
    24   11   48 1    
    25   12   13 ar   
    26   12   77 1    
    27   13   14 ar   
    28   13   15 1    
    29   14   78 1    
    30   15   16 1    
    31   15   79 1    
    32   15   80 1    
    33   16   17 1    
    34   17   18 1    
    35   17   81 1    
    36   17   82 1    
    37   18   19 1    
    38   18   22 1    
    39   18   83 1    
    40   19   20 am   BACKBONE|DICT|INTERRES
    41   19   21 2    
    42   20   84 1    
    43   20   85 1    
    44   22   23 am   BACKBONE|DICT|INTERRES
    45   22   86 1    
    46   23   24 2    
    47   23   25 1    
    48   25   26 1    
    49   25   27 1    
    50   25   87 1    
    51   26   88 1    
    52   26   89 1    
    53   26   90 1    
    54   27   28 am   BACKBONE|DICT|INTERRES
    55   27   91 1    
    56   28   29 2    
    57   28   30 1    
    58   30   31 1    
    59   30   32 1    
    60   30   92 1    
    61   31   93 1    
    62   31   94 1    
    63   31   95 1    
    64   32   33 am   BACKBONE|DICT|INTERRES
    65   32   96 1    
    66   33   34 2    
    67   33   35 1    
    68   35   36 1    
    69   35   37 1    
    70   35   97 1    
    71   36   98 1    
    72   36   99 1    
    73   36  100 1    
    74   37   38 am   BACKBONE|DICT|INTERRES
    75   37  101 1    
    76   38   39 2    
    77   38   40 1    
    78   40   41 1    
    79   40   42 1    
    80   40  102 1    
    81   41  103 1    
    82   41  104 1    
    83   41  105 1    
    84   42   43 am   BACKBONE|DICT|INTERRES
    85   42  106 1    
    86   43   44 2    
    87   43   45 1    
    88   45   46 1    
    89   45   49 1    
    90   45  107 1    
    91   46   47 1    
    92   46  108 1    
    93   46  109 1    
    94   47   48 1    
    95   48  110 1    
    96   48  111 1    
    97   49   50 am   BACKBONE|DICT|INTERRES
    98   49  112 1    
    99   50   51 2    
   100   50   52 1    
   101   52   53 1    
   102   52   54 1    
   103   52  113 1    
   104   53  114 1    
   105   53  115 1    
   106   53  116 1    
   107   54   55 am   BACKBONE|DICT|INTERRES
   108   54  117 1    
   109   55   56 2    
   110   55   57 1    
   111   57   58 1    
   112   57   59 1    
   113   57  118 1    
   114   58  119 1    
   115   58  120 1    
   116   58  121 1    
   117   59   60 am   BACKBONE|DICT|INTERRES
   118   59  122 1    
   119   60   61 2    
   120   60   62 1    
   121   62   63 1    
   122   62   64 1    
   123   62  123 1    
   124   63  124 1    
   125   63  125 1    
   126   63  126 1    
   127   64   65 am   BACKBONE|DICT|INTERRES
   128   64  127 1    
   129   65   66 2    
@<TRIPOS>SUBSTRUCTURE
     1 UNK         1 GROUP             0       ****    0 ROOT    
