@<TRIPOS>MOLECULE
3R135
127   129    1
SMALL
USER_CHARGES


@<TRIPOS>ATOM
      1 CA        -83.2742   27.5076  -71.7406 C.3       0 UNK        -0.1998 
      2 C         -82.3686   27.4072  -72.9577 C.2       0 UNK         0.4909 
      3 O         -81.6493   26.4202  -73.1018 O.2       0 UNK        -0.5240 
      4 N         -82.4130   28.4127  -73.8446 N.am      1 UNK        -0.4739 
      5 CA        -81.5717   28.5651  -75.0472 C.3       1 UNK         0.0864 
      6 C6        -80.0744   28.8067  -74.7091 C.3       11 UNK        -0.0881 
      7 S7        -79.8002   30.3484  -73.7720 S.3       11 UNK        -0.2682 
      8 C8        -79.4842   29.7358  -72.0829 C.3       11 UNK         0.0289 
      9 C9        -78.2528   28.8421  -71.9768 C.ar      11 UNK        -0.0687 
     10 C10       -78.3507   27.5891  -71.3613 C.ar      11 UNK        -0.0823 
     11 C11       -77.2223   26.7749  -71.2189 C.ar      11 UNK        -0.0830 
     12 C12       -75.9936   27.2148  -71.7150 C.ar      11 UNK        -0.1021 
     13 C13       -75.8878   28.4504  -72.3571 C.ar      11 UNK        -0.0753 
     14 C14       -77.0146   29.2691  -72.4693 C.ar      11 UNK        -0.0933 
     15 C15       -74.5636   28.8668  -72.9706 C.3       11 UNK         0.0166 
     16 S16       -73.4076   29.5183  -71.7244 S.3       11 UNK        -0.2615 
     17 C17       -73.4962   31.3155  -72.0520 C.3       11 UNK        -0.0865 
     18 CA        -72.3995   31.8146  -73.0336 C.3       10 UNK         0.0862 
     19 C         -70.9920   31.8875  -72.3679 C.2       10 UNK         0.5551 
     20 N         -69.9797   31.1749  -72.8506 N.am      10 UNK        -0.7319 
     21 O         -70.8134   32.6219  -71.3992 O.2       10 UNK        -0.5018 
     22 N         -72.4440   31.0608  -74.2929 N.am      10 UNK        -0.4509 
     23 C         -71.9810   31.4711  -75.4768 C.2       10 UNK         0.4899 
     24 O         -71.5432   32.6033  -75.6865 O.2       10 UNK        -0.4839 
     25 CA        -72.0227   30.4292  -76.6139 C.3       9 UNK         0.0222 
     26 CB        -70.9891   30.7220  -77.7217 C.3       9 UNK        -0.1966 
     27 N         -71.9057   29.0340  -76.1576 N.am      9 UNK        -0.4218 
     28 C         -70.8825   28.4843  -75.4779 C.2       9 UNK         0.5020 
     29 O         -69.9253   29.1339  -75.0540 O.2       9 UNK        -0.5274 
     30 CA        -70.9202   26.9654  -75.2011 C.3       8 UNK         0.0270 
     31 CB        -71.0779   26.6853  -73.6972 C.3       8 UNK        -0.1976 
     32 N         -71.9647   26.2496  -75.9407 N.am      8 UNK        -0.4313 
     33 C         -71.9397   26.0263  -77.2647 C.2       8 UNK         0.5041 
     34 O         -70.9739   26.2991  -77.9785 O.2       8 UNK        -0.5577 
     35 CA        -73.2037   25.4361  -77.9235 C.3       7 UNK         0.0284 
     36 CB        -72.9957   23.9466  -78.2405 C.3       7 UNK        -0.1958 
     37 N         -74.4323   25.5879  -77.1380 N.am      7 UNK        -0.4454 
     38 C         -74.9625   26.7461  -76.7140 C.2       7 UNK         0.5089 
     39 O         -74.4933   27.8521  -76.9856 O.2       7 UNK        -0.5125 
     40 CA        -76.1794   26.6555  -75.7740 C.3       6 UNK         0.0408 
     41 CB        -77.4721   26.8531  -76.5758 C.3       6 UNK        -0.1791 
     42 N         -76.2693   25.4000  -75.0171 N.am      6 UNK        -0.4762 
     43 C         -75.3135   24.8881  -74.2213 C.2       6 UNK         0.5007 
     44 O         -74.2318   25.4425  -74.0182 O.2       6 UNK        -0.5032 
     45 CA        -75.5560   23.4920  -73.6074 C.3       5 UNK         0.0783 
     46 C46       -75.8592   23.5614  -72.0888 C.3       11 UNK        -0.0857 
     47 S47       -77.5717   24.0593  -71.6822 S.3       11 UNK        -0.2512 
     48 C48       -77.3287   25.4320  -70.5117 C.3       11 UNK         0.0225 
     49 N         -76.5499   22.6932  -74.3328 N.am      5 UNK        -0.4615 
     50 C         -76.4525   22.2946  -75.6079 C.2       4 UNK         0.5053 
     51 O         -75.4634   22.5025  -76.3114 O.2       4 UNK        -0.5105 
     52 CA        -77.6724   21.5772  -76.2160 C.3       4 UNK         0.0263 
     53 CB        -77.4398   20.0580  -76.2384 C.3       4 UNK        -0.1981 
     54 N         -78.9534   21.8594  -75.5517 N.am      4 UNK        -0.4224 
     55 C         -79.5263   23.0676  -75.4487 C.2       3 UNK         0.4895 
     56 O         -78.9937   24.1118  -75.8292 O.2       3 UNK        -0.5091 
     57 CA        -80.9020   23.1087  -74.7620 C.3       3 UNK         0.0250 
     58 CB        -80.7442   23.2297  -73.2393 C.3       3 UNK        -0.1996 
     59 N         -81.7230   24.2209  -75.2458 N.am      3 UNK        -0.4254 
     60 C         -82.3157   24.2523  -76.4494 C.2       2 UNK         0.5004 
     61 O         -82.2589   23.3231  -77.2569 O.2       2 UNK        -0.5226 
     62 CA        -83.1396   25.5013  -76.8202 C.3       2 UNK         0.0269 
     63 CB        -84.6446   25.1958  -76.7364 C.3       2 UNK        -0.1926 
     64 N         -82.8486   26.6666  -75.9829 N.am      2 UNK        -0.4687 
     65 C         -81.7560   27.4353  -76.0928 C.2       1 UNK         0.5165 
     66 O         -80.9257   27.2889  -76.9906 O.2       1 UNK        -0.5079 
     67 H67       -83.9635   26.6640  -71.7156 H         1 UNK         0.0900 
     68 H68       -82.6772   27.4869  -70.8293 H         1 UNK         0.0900 
     69 H69       -83.8600   28.4266  -71.7418 H         1 UNK         0.0900 
     70 H70       -83.0443   29.1835  -73.6729 H         1 UNK         0.2959 
     71 H71       -81.9370   29.4615  -75.5511 H         1 UNK         0.1079 
     72 H72       -79.6553   27.9535  -74.1734 H         1 UNK         0.0837 
     73 H73       -79.4855   28.9065  -75.6220 H         1 UNK         0.0837 
     74 H74       -80.3738   29.2168  -71.7254 H         1 UNK         0.0685 
     75 H75       -79.3468   30.5934  -71.4234 H         1 UNK         0.0685 
     76 H76       -79.3054   27.2491  -70.9832 H         1 UNK         0.1434 
     77 H77       -75.1166   26.5899  -71.6191 H         1 UNK         0.1329 
     78 H78       -76.9347   30.2314  -72.9561 H         1 UNK         0.1335 
     79 H79       -74.1087   28.0036  -73.4541 H         1 UNK         0.0680 
     80 H80       -74.7309   29.5923  -73.7675 H         1 UNK         0.0680 
     81 H81       -73.4318   31.8457  -71.0999 H         1 UNK         0.1032 
     82 H82       -74.4839   31.5610  -72.4452 H         1 UNK         0.1032 
     83 H83       -72.6489   32.8492  -73.2769 H         1 UNK         0.0461 
     84 H84       -69.0776   31.2430  -72.4078 H         1 UNK         0.3453 
     85 H85       -70.1009   30.5612  -73.6492 H         1 UNK         0.3453 
     86 H86       -72.7411   30.1012  -74.2079 H         1 UNK         0.2984 
     87 H87       -73.0146   30.5135  -77.0601 H         1 UNK         0.0554 
     88 H88       -71.1588   31.7019  -78.1695 H         1 UNK         0.0847 
     89 H89       -71.0490   29.9867  -78.5242 H         1 UNK         0.0847 
     90 H90       -69.9695   30.7136  -77.3347 H         1 UNK         0.0847 
     91 H91       -72.6763   28.4321  -76.4365 H         1 UNK         0.3141 
     92 H92       -69.9536   26.5652  -75.5143 H         1 UNK         0.0743 
     93 H93       -70.2843   27.1658  -73.1232 H         1 UNK         0.0784 
     94 H94       -72.0259   27.0559  -73.3105 H         1 UNK         0.0784 
     95 H95       -71.0277   25.6171  -73.4857 H         1 UNK         0.0784 
     96 H96       -72.7875   25.9745  -75.4120 H         1 UNK         0.3213 
     97 H97       -73.3527   25.9709  -78.8637 H         1 UNK         0.0855 
     98 H98       -72.8656   23.3565  -77.3322 H         1 UNK         0.0814 
     99 H99       -72.1086   23.7968  -78.8577 H         1 UNK         0.0814 
    100 H100      -73.8433   23.5338  -78.7881 H         1 UNK         0.0814 
    101 H101      -74.8832   24.7301  -76.8432 H         1 UNK         0.3105 
    102 H102      -76.1007   27.4665  -75.0496 H         1 UNK         0.0547 
    103 H103      -77.5883   26.0927  -77.3491 H         1 UNK         0.0837 
    104 H104      -77.4866   27.8267  -77.0671 H         1 UNK         0.0837 
    105 H105      -78.3482   26.7986  -75.9312 H         1 UNK         0.0837 
    106 H106      -77.1270   24.8704  -75.1381 H         1 UNK         0.3020 
    107 H107      -74.6041   22.9672  -73.7179 H         1 UNK         0.1245 
    108 H108      -75.1423   24.2088  -71.5814 H         1 UNK         0.0781 
    109 H109      -75.7055   22.5732  -71.6528 H         1 UNK         0.0781 
    110 H110      -76.4463   25.2536  -69.8954 H         1 UNK         0.0836 
    111 H111      -78.1733   25.4466  -69.8212 H         1 UNK         0.0836 
    112 H112      -77.4060   22.5036  -73.8326 H         1 UNK         0.3022 
    113 H113      -77.7605   21.9239  -77.2478 H         1 UNK         0.0747 
    114 H114      -78.2418   19.5400  -76.7648 H         1 UNK         0.0793 
    115 H115      -76.5087   19.8127  -76.7517 H         1 UNK         0.0793 
    116 H116      -77.3748   19.6445  -75.2311 H         1 UNK         0.0793 
    117 H117      -79.4523   21.0587  -75.1904 H         1 UNK         0.3047 
    118 H118      -81.4279   22.1769  -74.9814 H         1 UNK         0.0822 
    119 H119      -81.7120   23.2234  -72.7376 H         1 UNK         0.0807 
    120 H120      -80.2354   24.1544  -72.9651 H         1 UNK         0.0807 
    121 H121      -80.1618   22.4022  -72.8325 H         1 UNK         0.0807 
    122 H122      -81.7710   25.0395  -74.6475 H         1 UNK         0.2946 
    123 H123      -82.8971   25.7484  -77.8565 H         1 UNK         0.1144 
    124 H124      -85.2417   26.0466  -77.0651 H         1 UNK         0.0793 
    125 H125      -84.9493   24.9422  -75.7202 H         1 UNK         0.0793 
    126 H126      -84.9084   24.3519  -77.3757 H         1 UNK         0.0793 
    127 H127      -83.4818   26.8532  -75.2188 H         1 UNK         0.2896 
@<TRIPOS>BOND
     1    1    2 1    
     2    1   67 1    
     3    1   68 1    
     4    1   69 1    
     5    2    3 2    
     6    2    4 am   BACKBONE|DICT|INTERRES
     7    4    5 1    
     8    4   70 1    
     9    5    6 1    
    10    5   65 1    
    11    5   71 1    
    12    6    7 1    
    13    6   72 1    
    14    6   73 1    
    15    7    8 1    
    16    8    9 1    
    17    8   74 1    
    18    8   75 1    
    19    9   10 ar   
    20    9   14 ar   
    21   10   11 ar   
    22   10   76 1    
    23   11   12 ar   
    24   11   48 1    
    25   12   13 ar   
    26   12   77 1    
    27   13   14 ar   
    28   13   15 1    
    29   14   78 1    
    30   15   16 1    
    31   15   79 1    
    32   15   80 1    
    33   16   17 1    
    34   17   18 1    
    35   17   81 1    
    36   17   82 1    
    37   18   19 1    
    38   18   22 1    
    39   18   83 1    
    40   19   20 am   BACKBONE|DICT|INTERRES
    41   19   21 2    
    42   20   84 1    
    43   20   85 1    
    44   22   23 am   BACKBONE|DICT|INTERRES
    45   22   86 1    
    46   23   24 2    
    47   23   25 1    
    48   25   26 1    
    49   25   27 1    
    50   25   87 1    
    51   26   88 1    
    52   26   89 1    
    53   26   90 1    
    54   27   28 am   BACKBONE|DICT|INTERRES
    55   27   91 1    
    56   28   29 2    
    57   28   30 1    
    58   30   31 1    
    59   30   32 1    
    60   30   92 1    
    61   31   93 1    
    62   31   94 1    
    63   31   95 1    
    64   32   33 am   BACKBONE|DICT|INTERRES
    65   32   96 1    
    66   33   34 2    
    67   33   35 1    
    68   35   36 1    
    69   35   37 1    
    70   35   97 1    
    71   36   98 1    
    72   36   99 1    
    73   36  100 1    
    74   37   38 am   BACKBONE|DICT|INTERRES
    75   37  101 1    
    76   38   39 2    
    77   38   40 1    
    78   40   41 1    
    79   40   42 1    
    80   40  102 1    
    81   41  103 1    
    82   41  104 1    
    83   41  105 1    
    84   42   43 am   BACKBONE|DICT|INTERRES
    85   42  106 1    
    86   43   44 2    
    87   43   45 1    
    88   45   46 1    
    89   45   49 1    
    90   45  107 1    
    91   46   47 1    
    92   46  108 1    
    93   46  109 1    
    94   47   48 1    
    95   48  110 1    
    96   48  111 1    
    97   49   50 am   BACKBONE|DICT|INTERRES
    98   49  112 1    
    99   50   51 2    
   100   50   52 1    
   101   52   53 1    
   102   52   54 1    
   103   52  113 1    
   104   53  114 1    
   105   53  115 1    
   106   53  116 1    
   107   54   55 am   BACKBONE|DICT|INTERRES
   108   54  117 1    
   109   55   56 2    
   110   55   57 1    
   111   57   58 1    
   112   57   59 1    
   113   57  118 1    
   114   58  119 1    
   115   58  120 1    
   116   58  121 1    
   117   59   60 am   BACKBONE|DICT|INTERRES
   118   59  122 1    
   119   60   61 2    
   120   60   62 1    
   121   62   63 1    
   122   62   64 1    
   123   62  123 1    
   124   63  124 1    
   125   63  125 1    
   126   63  126 1    
   127   64   65 am   BACKBONE|DICT|INTERRES
   128   64  127 1    
   129   65   66 2    
@<TRIPOS>SUBSTRUCTURE
     1 UNK         1 GROUP             0       ****    0 ROOT    
