@<TRIPOS>MOLECULE
3R135
127   129    1
SMALL
USER_CHARGES


@<TRIPOS>ATOM
      1 CA        -80.3351   26.9323  -71.5420 C.3       0 UNK        -0.1998 
      2 C         -80.8198   26.8899  -72.9829 C.2       0 UNK         0.4909 
      3 O         -81.7614   26.1594  -73.2948 O.2       0 UNK        -0.5240 
      4 N         -80.1879   27.6741  -73.8653 N.am      1 UNK        -0.4739 
      5 CA        -80.4720   27.7371  -75.3028 C.3       1 UNK         0.0864 
      6 C6        -79.6551   28.8262  -76.0486 C.3       11 UNK        -0.0881 
      7 S7        -79.5746   30.4303  -75.1768 S.3       11 UNK        -0.2682 
      8 C8        -77.7744   30.6386  -74.9775 C.3       11 UNK         0.0289 
      9 C9        -77.2261   29.9655  -73.7221 C.ar      11 UNK        -0.0687 
     10 C10       -77.1841   28.5719  -73.6052 C.ar      11 UNK        -0.0823 
     11 C11       -76.7061   27.9618  -72.4410 C.ar      11 UNK        -0.0830 
     12 C12       -76.2115   28.7604  -71.4061 C.ar      11 UNK        -0.1021 
     13 C13       -76.2021   30.1534  -71.5283 C.ar      11 UNK        -0.0753 
     14 C14       -76.7257   30.7484  -72.6790 C.ar      11 UNK        -0.0933 
     15 C15       -75.6378   31.0287  -70.4209 C.3       11 UNK         0.0166 
     16 S16       -73.9133   31.5015  -70.7638 S.3       11 UNK        -0.2615 
     17 C17       -73.0124   30.0464  -70.1335 C.3       11 UNK        -0.0865 
     18 CA        -71.7263   29.7299  -70.9376 C.3       10 UNK         0.0862 
     19 C         -70.9081   28.6308  -70.2012 C.2       10 UNK         0.5551 
     20 N         -69.9577   29.0219  -69.3634 N.am      10 UNK        -0.7319 
     21 O         -71.1615   27.4365  -70.3468 O.2       10 UNK        -0.5018 
     22 N         -72.0264   29.3818  -72.3373 N.am      10 UNK        -0.4509 
     23 C         -71.1028   29.1122  -73.2712 C.2       10 UNK         0.4899 
     24 O         -69.8895   29.2336  -73.0966 O.2       10 UNK        -0.4839 
     25 CA        -71.6086   28.6162  -74.6350 C.3       9 UNK         0.0222 
     26 CB        -71.8425   27.0976  -74.5987 C.3       9 UNK        -0.1966 
     27 N         -72.8263   29.2875  -75.0911 N.am      9 UNK        -0.4218 
     28 C         -72.8927   30.5545  -75.5183 C.2       9 UNK         0.5020 
     29 O         -71.9323   31.3272  -75.5275 O.2       9 UNK        -0.5274 
     30 CA        -74.2556   31.0062  -76.0798 C.3       8 UNK         0.0270 
     31 CB        -74.3039   32.5114  -76.4007 C.3       8 UNK        -0.1976 
     32 N         -74.6278   30.2450  -77.2806 N.am      8 UNK        -0.4313 
     33 C         -75.0882   28.9884  -77.2689 C.2       8 UNK         0.5041 
     34 O         -75.2934   28.3590  -76.2278 O.2       8 UNK        -0.5577 
     35 CA        -75.3300   28.3025  -78.6196 C.3       7 UNK         0.0284 
     36 CB        -73.9873   27.9943  -79.3139 C.3       7 UNK        -0.1958 
     37 N         -76.0567   27.0682  -78.3368 N.am      7 UNK        -0.4454 
     38 C         -76.5833   26.1922  -79.1986 C.2       7 UNK         0.5089 
     39 O         -76.5724   26.3489  -80.4204 O.2       7 UNK        -0.5125 
     40 CA        -77.2557   24.9390  -78.5915 C.3       6 UNK         0.0408 
     41 CB        -77.1226   23.6938  -79.4923 C.3       6 UNK        -0.1791 
     42 N         -76.8381   24.6436  -77.2114 N.am      6 UNK        -0.4762 
     43 C         -75.6071   24.3125  -76.7857 C.2       6 UNK         0.5007 
     44 O         -74.6444   24.1265  -77.5306 O.2       6 UNK        -0.5032 
     45 CA        -75.4138   24.2131  -75.2614 C.3       5 UNK         0.0783 
     46 C46       -75.4475   25.6231  -74.6283 C.3       11 UNK        -0.0857 
     47 S47       -75.2231   25.6344  -72.8198 S.3       11 UNK        -0.2512 
     48 C48       -76.7597   26.4463  -72.2791 C.3       11 UNK         0.0225 
     49 N         -76.3595   23.2785  -74.6452 N.am      5 UNK        -0.4615 
     50 C         -76.2661   21.9477  -74.7396 C.2       4 UNK         0.5053 
     51 O         -75.4401   21.3726  -75.4490 O.2       4 UNK        -0.5105 
     52 CA        -77.2089   21.0974  -73.8696 C.3       4 UNK         0.0263 
     53 CB        -76.7228   21.0608  -72.4066 C.3       4 UNK        -0.1981 
     54 N         -78.6325   21.4460  -73.9539 N.am      4 UNK        -0.4224 
     55 C         -79.2557   22.5564  -73.5395 C.2       3 UNK         0.4895 
     56 O         -78.6897   23.5359  -73.0494 O.2       3 UNK        -0.5091 
     57 CA        -80.7814   22.5708  -73.7173 C.3       3 UNK         0.0250 
     58 CB        -81.4967   22.9383  -72.4063 C.3       3 UNK        -0.1996 
     59 N         -81.1514   23.5119  -74.7720 N.am      3 UNK        -0.4254 
     60 C         -80.9660   23.2756  -76.0803 C.2       2 UNK         0.5004 
     61 O         -80.5581   22.2009  -76.5233 O.2       2 UNK        -0.5226 
     62 CA        -81.2841   24.4095  -77.0736 C.3       2 UNK         0.0269 
     63 CB        -82.6321   24.1539  -77.7672 C.3       2 UNK        -0.1926 
     64 N         -81.3006   25.7473  -76.4758 N.am      2 UNK        -0.4687 
     65 C         -80.2317   26.3610  -75.9524 C.2       1 UNK         0.5165 
     66 O         -79.0963   25.8783  -75.9429 O.2       1 UNK        -0.5079 
     67 H67       -79.8661   25.9845  -71.2788 H         1 UNK         0.0900 
     68 H68       -81.1746   27.0979  -70.8674 H         1 UNK         0.0900 
     69 H69       -79.6089   27.7290  -71.3805 H         1 UNK         0.0900 
     70 H70       -79.4431   28.2798  -73.5499 H         1 UNK         0.2959 
     71 H71       -81.5294   27.9930  -75.3999 H         1 UNK         0.1079 
     72 H72       -78.6422   28.4837  -76.2660 H         1 UNK         0.0837 
     73 H73       -80.1040   29.0083  -77.0267 H         1 UNK         0.0837 
     74 H74       -77.2619   30.2608  -75.8601 H         1 UNK         0.0685 
     75 H75       -77.5625   31.7085  -74.9520 H         1 UNK         0.0685 
     76 H76       -77.5360   27.9573  -74.4185 H         1 UNK         0.1434 
     77 H77       -75.8347   28.2946  -70.5061 H         1 UNK         0.1329 
     78 H78       -76.7295   31.8265  -72.7648 H         1 UNK         0.1335 
     79 H79       -75.7039   30.5265  -69.4544 H         1 UNK         0.0680 
     80 H80       -76.2380   31.9356  -70.3319 H         1 UNK         0.0680 
     81 H81       -73.6679   29.1749  -70.1240 H         1 UNK         0.1032 
     82 H82       -72.7698   30.2491  -69.0882 H         1 UNK         0.1032 
     83 H83       -71.1164   30.6352  -70.9669 H         1 UNK         0.0461 
     84 H84       -69.4277   28.3250  -68.8635 H         1 UNK         0.3453 
     85 H85       -69.7496   29.9995  -69.2301 H         1 UNK         0.3453 
     86 H86       -73.0014   29.2628  -72.5684 H         1 UNK         0.2984 
     87 H87       -70.8266   28.8157  -75.3708 H         1 UNK         0.0554 
     88 H88       -72.1649   26.7186  -75.5688 H         1 UNK         0.0847 
     89 H89       -72.5959   26.8243  -73.8595 H         1 UNK         0.0847 
     90 H90       -70.9253   26.5700  -74.3335 H         1 UNK         0.0847 
     91 H91       -73.6713   28.7283  -75.1807 H         1 UNK         0.3141 
     92 H92       -74.9878   30.8170  -75.2945 H         1 UNK         0.0743 
     93 H93       -74.0529   33.1053  -75.5207 H         1 UNK         0.0784 
     94 H94       -73.5996   32.7810  -77.1887 H         1 UNK         0.0784 
     95 H95       -75.3005   32.8161  -76.7208 H         1 UNK         0.0784 
     96 H96       -74.4470   30.6903  -78.1692 H         1 UNK         0.3213 
     97 H97       -75.9474   28.9487  -79.2463 H         1 UNK         0.0855 
     98 H98       -73.4148   28.9045  -79.4956 H         1 UNK         0.0814 
     99 H99       -74.1346   27.5158  -80.2818 H         1 UNK         0.0814 
    100 H100      -73.3664   27.3332  -78.7073 H         1 UNK         0.0814 
    101 H101      -76.1338   26.8880  -77.3420 H         1 UNK         0.3105 
    102 H102      -78.3167   25.1817  -78.5318 H         1 UNK         0.0547 
    103 H103      -77.5818   23.8647  -80.4666 H         1 UNK         0.0837 
    104 H104      -76.0798   23.4298  -79.6692 H         1 UNK         0.0837 
    105 H105      -77.6183   22.8299  -79.0496 H         1 UNK         0.0837 
    106 H106      -77.5561   24.8259  -76.5135 H         1 UNK         0.3020 
    107 H107      -74.4105   23.8122  -75.0967 H         1 UNK         0.1245 
    108 H108      -76.3794   26.1260  -74.8829 H         1 UNK         0.0781 
    109 H109      -74.6481   26.2311  -75.0505 H         1 UNK         0.0781 
    110 H110      -76.9337   26.1961  -71.2316 H         1 UNK         0.0836 
    111 H111      -77.6077   26.0325  -72.8272 H         1 UNK         0.0836 
    112 H112      -77.0763   23.6643  -74.0358 H         1 UNK         0.3022 
    113 H113      -77.1426   20.0779  -74.2534 H         1 UNK         0.0747 
    114 H114      -77.3333   20.3899  -71.8023 H         1 UNK         0.0793 
    115 H115      -75.6939   20.7034  -72.3482 H         1 UNK         0.0793 
    116 H116      -76.7474   22.0470  -71.9415 H         1 UNK         0.0793 
    117 H117      -79.2045   20.7474  -74.4093 H         1 UNK         0.3047 
    118 H118      -81.1220   21.5742  -74.0074 H         1 UNK         0.0822 
    119 H119      -82.5778   22.9773  -72.5399 H         1 UNK         0.0807 
    120 H120      -81.1724   23.9044  -72.0207 H         1 UNK         0.0807 
    121 H121      -81.2903   22.1977  -71.6328 H         1 UNK         0.0807 
    122 H122      -81.4459   24.4355  -74.4719 H         1 UNK         0.2946 
    123 H123      -80.5003   24.3912  -77.8335 H         1 UNK         0.1144 
    124 H124      -82.8289   24.8968  -78.5404 H         1 UNK         0.0793 
    125 H125      -83.4612   24.1762  -77.0587 H         1 UNK         0.0793 
    126 H126      -82.6436   23.1761  -78.2511 H         1 UNK         0.0793 
    127 H127      -82.2017   26.1998  -76.4138 H         1 UNK         0.2896 
@<TRIPOS>BOND
     1    1    2 1    
     2    1   67 1    
     3    1   68 1    
     4    1   69 1    
     5    2    3 2    
     6    2    4 am   BACKBONE|DICT|INTERRES
     7    4    5 1    
     8    4   70 1    
     9    5    6 1    
    10    5   65 1    
    11    5   71 1    
    12    6    7 1    
    13    6   72 1    
    14    6   73 1    
    15    7    8 1    
    16    8    9 1    
    17    8   74 1    
    18    8   75 1    
    19    9   10 ar   
    20    9   14 ar   
    21   10   11 ar   
    22   10   76 1    
    23   11   12 ar   
    24   11   48 1    
    25   12   13 ar   
    26   12   77 1    
    27   13   14 ar   
    28   13   15 1    
    29   14   78 1    
    30   15   16 1    
    31   15   79 1    
    32   15   80 1    
    33   16   17 1    
    34   17   18 1    
    35   17   81 1    
    36   17   82 1    
    37   18   19 1    
    38   18   22 1    
    39   18   83 1    
    40   19   20 am   BACKBONE|DICT|INTERRES
    41   19   21 2    
    42   20   84 1    
    43   20   85 1    
    44   22   23 am   BACKBONE|DICT|INTERRES
    45   22   86 1    
    46   23   24 2    
    47   23   25 1    
    48   25   26 1    
    49   25   27 1    
    50   25   87 1    
    51   26   88 1    
    52   26   89 1    
    53   26   90 1    
    54   27   28 am   BACKBONE|DICT|INTERRES
    55   27   91 1    
    56   28   29 2    
    57   28   30 1    
    58   30   31 1    
    59   30   32 1    
    60   30   92 1    
    61   31   93 1    
    62   31   94 1    
    63   31   95 1    
    64   32   33 am   BACKBONE|DICT|INTERRES
    65   32   96 1    
    66   33   34 2    
    67   33   35 1    
    68   35   36 1    
    69   35   37 1    
    70   35   97 1    
    71   36   98 1    
    72   36   99 1    
    73   36  100 1    
    74   37   38 am   BACKBONE|DICT|INTERRES
    75   37  101 1    
    76   38   39 2    
    77   38   40 1    
    78   40   41 1    
    79   40   42 1    
    80   40  102 1    
    81   41  103 1    
    82   41  104 1    
    83   41  105 1    
    84   42   43 am   BACKBONE|DICT|INTERRES
    85   42  106 1    
    86   43   44 2    
    87   43   45 1    
    88   45   46 1    
    89   45   49 1    
    90   45  107 1    
    91   46   47 1    
    92   46  108 1    
    93   46  109 1    
    94   47   48 1    
    95   48  110 1    
    96   48  111 1    
    97   49   50 am   BACKBONE|DICT|INTERRES
    98   49  112 1    
    99   50   51 2    
   100   50   52 1    
   101   52   53 1    
   102   52   54 1    
   103   52  113 1    
   104   53  114 1    
   105   53  115 1    
   106   53  116 1    
   107   54   55 am   BACKBONE|DICT|INTERRES
   108   54  117 1    
   109   55   56 2    
   110   55   57 1    
   111   57   58 1    
   112   57   59 1    
   113   57  118 1    
   114   58  119 1    
   115   58  120 1    
   116   58  121 1    
   117   59   60 am   BACKBONE|DICT|INTERRES
   118   59  122 1    
   119   60   61 2    
   120   60   62 1    
   121   62   63 1    
   122   62   64 1    
   123   62  123 1    
   124   63  124 1    
   125   63  125 1    
   126   63  126 1    
   127   64   65 am   BACKBONE|DICT|INTERRES
   128   64  127 1    
   129   65   66 2    
@<TRIPOS>SUBSTRUCTURE
     1 UNK         1 GROUP             0       ****    0 ROOT    
