@<TRIPOS>MOLECULE
3R135
127   129    1
SMALL
USER_CHARGES


@<TRIPOS>ATOM
      1 CA        -75.9280   23.2988  -73.7682 C.3       0 UNK        -0.1998 
      2 C         -76.9147   23.4069  -72.6163 C.2       0 UNK         0.4909 
      3 O         -77.1482   22.4222  -71.9160 O.2       0 UNK        -0.5240 
      4 N         -77.5102   24.5918  -72.4233 N.am      1 UNK        -0.4739 
      5 CA        -78.5089   24.8722  -71.3769 C.3       1 UNK         0.0864 
      6 C6        -78.6062   26.3871  -71.0680 C.3       11 UNK        -0.0881 
      7 S7        -77.0210   27.1208  -70.5439 S.3       11 UNK        -0.2682 
      8 C8        -77.3835   28.9021  -70.6699 C.3       11 UNK         0.0289 
      9 C9        -77.3895   29.3865  -72.1133 C.ar      11 UNK        -0.0687 
     10 C10       -78.5828   29.4366  -72.8384 C.ar      11 UNK        -0.0823 
     11 C11       -78.5919   29.8547  -74.1727 C.ar      11 UNK        -0.0830 
     12 C12       -77.3984   30.2775  -74.7678 C.ar      11 UNK        -0.1021 
     13 C13       -76.2019   30.2605  -74.0418 C.ar      11 UNK        -0.0753 
     14 C14       -76.2022   29.8020  -72.7211 C.ar      11 UNK        -0.0933 
     15 C15       -74.9030   30.7395  -74.6695 C.3       11 UNK         0.0166 
     16 S16       -74.4734   32.4011  -74.0697 S.3       11 UNK        -0.2615 
     17 C17       -72.8419   32.6652  -74.8517 C.3       11 UNK        -0.0865 
     18 CA        -71.6105   32.7315  -73.8954 C.3       10 UNK         0.0862 
     19 C         -71.7530   33.7354  -72.7090 C.2       10 UNK         0.5551 
     20 N         -71.2765   33.4230  -71.5106 N.am      10 UNK        -0.7319 
     21 O         -72.2519   34.8432  -72.8933 O.2       10 UNK        -0.5018 
     22 N         -71.0275   31.4104  -73.5918 N.am      10 UNK        -0.4509 
     23 C         -71.5014   30.4537  -72.7843 C.2       10 UNK         0.4899 
     24 O         -72.5202   30.5446  -72.0989 O.2       10 UNK        -0.4839 
     25 CA        -70.6378   29.1829  -72.6884 C.3       9 UNK         0.0222 
     26 CB        -69.7855   29.2070  -71.4088 C.3       9 UNK        -0.1966 
     27 N         -71.4459   27.9616  -72.7099 N.am      9 UNK        -0.4218 
     28 C         -72.1809   27.5570  -73.7539 C.2       9 UNK         0.5020 
     29 O         -72.2222   28.1578  -74.8300 O.2       9 UNK        -0.5274 
     30 CA        -73.0105   26.2768  -73.5429 C.3       8 UNK         0.0270 
     31 CB        -74.1701   26.5387  -72.5690 C.3       8 UNK        -0.1976 
     32 N         -73.5565   25.7795  -74.8075 N.am      8 UNK        -0.4313 
     33 C         -72.8558   25.0922  -75.7230 C.2       8 UNK         0.5041 
     34 O         -71.7178   24.6623  -75.5251 O.2       8 UNK        -0.5577 
     35 CA        -73.5183   24.8382  -77.0945 C.3       7 UNK         0.0284 
     36 CB        -74.0307   23.3926  -77.1958 C.3       7 UNK        -0.1958 
     37 N         -74.6172   25.7638  -77.3815 N.am      7 UNK        -0.4454 
     38 C         -74.4553   27.0736  -77.6238 C.2       7 UNK         0.5089 
     39 O         -73.3591   27.5857  -77.8501 O.2       7 UNK        -0.5125 
     40 CA        -75.7033   27.9800  -77.5983 C.3       6 UNK         0.0408 
     41 CB        -75.9317   28.6383  -78.9688 C.3       6 UNK        -0.1791 
     42 N         -76.9450   27.3270  -77.1793 N.am      6 UNK        -0.4762 
     43 C         -77.2119   26.7802  -75.9834 C.2       6 UNK         0.5007 
     44 O         -76.4107   26.7297  -75.0504 O.2       6 UNK        -0.5032 
     45 CA        -78.5838   26.0844  -75.8489 C.3       5 UNK         0.0783 
     46 C46       -79.6693   27.0043  -75.2334 C.3       11 UNK        -0.0857 
     47 S47       -80.0027   28.5241  -76.2017 S.3       11 UNK        -0.2512 
     48 C48       -79.8997   29.8571  -74.9563 C.3       11 UNK         0.0225 
     49 N         -79.0506   25.4589  -77.0917 N.am      5 UNK        -0.4615 
     50 C         -78.3946   24.5296  -77.7996 C.2       4 UNK         0.5053 
     51 O         -77.2475   24.1582  -77.5442 O.2       4 UNK        -0.5105 
     52 CA        -79.1803   23.8876  -78.9581 C.3       4 UNK         0.0263 
     53 CB        -78.2720   23.0977  -79.9183 C.3       4 UNK        -0.1981 
     54 N         -80.2036   22.9905  -78.4195 N.am      4 UNK        -0.4224 
     55 C         -81.3553   23.3856  -77.8601 C.2       3 UNK         0.4895 
     56 O         -81.7638   24.5484  -77.8900 O.2       3 UNK        -0.5091 
     57 CA        -82.1655   22.3319  -77.0802 C.3       3 UNK         0.0250 
     58 CB        -81.7408   20.8706  -77.3564 C.3       3 UNK        -0.1996 
     59 N         -82.1440   22.6127  -75.6368 N.am      3 UNK        -0.4254 
     60 C         -81.0577   22.7341  -74.8577 C.2       2 UNK         0.5004 
     61 O         -79.8966   22.5826  -75.2500 O.2       2 UNK        -0.5226 
     62 CA        -81.3039   23.0671  -73.3816 C.3       2 UNK         0.0269 
     63 CB        -81.6928   21.8001  -72.5946 C.3       2 UNK        -0.1926 
     64 N         -80.0711   23.6409  -72.8505 N.am      2 UNK        -0.4687 
     65 C         -79.9134   24.3003  -71.6978 C.2       1 UNK         0.5165 
     66 O         -80.8360   24.4877  -70.9031 O.2       1 UNK        -0.5079 
     67 H67       -75.9597   24.1756  -74.4124 H         1 UNK         0.0900 
     68 H68       -76.1614   22.4277  -74.3802 H         1 UNK         0.0900 
     69 H69       -74.9126   23.1888  -73.3885 H         1 UNK         0.0900 
     70 H70       -77.2374   25.3857  -72.9873 H         1 UNK         0.2959 
     71 H71       -78.1841   24.3705  -70.4625 H         1 UNK         0.1079 
     72 H72       -78.9741   26.9135  -71.9460 H         1 UNK         0.0837 
     73 H73       -79.3295   26.5760  -70.2720 H         1 UNK         0.0837 
     74 H74       -78.3387   29.1168  -70.1882 H         1 UNK         0.0685 
     75 H75       -76.6292   29.4515  -70.1045 H         1 UNK         0.0685 
     76 H76       -79.5068   29.1318  -72.3668 H         1 UNK         0.1434 
     77 H77       -77.4026   30.6154  -75.7950 H         1 UNK         0.1329 
     78 H78       -75.2746   29.7804  -72.1643 H         1 UNK         0.1335 
     79 H79       -74.9824   30.7623  -75.7568 H         1 UNK         0.0680 
     80 H80       -74.1016   30.0417  -74.4264 H         1 UNK         0.0680 
     81 H81       -72.9111   33.6069  -75.3989 H         1 UNK         0.1032 
     82 H82       -72.6751   31.9073  -75.6186 H         1 UNK         0.1032 
     83 H83       -70.8214   33.1916  -74.4916 H         1 UNK         0.0461 
     84 H84       -71.3558   34.0872  -70.7569 H         1 UNK         0.3453 
     85 H85       -70.8834   32.5109  -71.3449 H         1 UNK         0.3453 
     86 H86       -70.1547   31.2250  -74.0653 H         1 UNK         0.2984 
     87 H87       -69.9639   29.1462  -73.5472 H         1 UNK         0.0554 
     88 H88       -69.1323   28.3363  -71.3482 H         1 UNK         0.0847 
     89 H89       -70.4051   29.2263  -70.5110 H         1 UNK         0.0847 
     90 H90       -69.1462   30.0905  -71.3813 H         1 UNK         0.0847 
     91 H91       -71.4923   27.4352  -71.8496 H         1 UNK         0.3141 
     92 H92       -72.3590   25.5129  -73.1134 H         1 UNK         0.0743 
     93 H93       -73.8124   26.9005  -71.6045 H         1 UNK         0.0784 
     94 H94       -74.8593   27.2883  -72.9581 H         1 UNK         0.0784 
     95 H95       -74.7388   25.6310  -72.3746 H         1 UNK         0.0784 
     96 H96       -74.4729   26.1350  -75.0621 H         1 UNK         0.3213 
     97 H97       -72.7485   24.9789  -77.8563 H         1 UNK         0.0855 
     98 H98       -73.2275   22.6785  -77.0094 H         1 UNK         0.0814 
     99 H99       -74.4283   23.1822  -78.1888 H         1 UNK         0.0814 
    100 H100      -74.8212   23.1917  -76.4732 H         1 UNK         0.0814 
    101 H101      -75.5584   25.4000  -77.2744 H         1 UNK         0.3105 
    102 H102      -75.4978   28.7672  -76.8726 H         1 UNK         0.0547 
    103 H103      -75.0458   29.1852  -79.2945 H         1 UNK         0.0837 
    104 H104      -76.1585   27.8988  -79.7377 H         1 UNK         0.0837 
    105 H105      -76.7537   29.3535  -78.9344 H         1 UNK         0.0837 
    106 H106      -77.6807   27.2858  -77.8700 H         1 UNK         0.3020 
    107 H107      -78.4300   25.2573  -75.1535 H         1 UNK         0.1245 
    108 H108      -79.3905   27.2616  -74.2143 H         1 UNK         0.0781 
    109 H109      -80.6070   26.4542  -75.1385 H         1 UNK         0.0781 
    110 H110      -80.7527   29.7712  -74.2813 H         1 UNK         0.0836 
    111 H111      -80.0126   30.8174  -75.4613 H         1 UNK         0.0836 
    112 H112      -80.0084   25.6577  -77.3574 H         1 UNK         0.3022 
    113 H113      -79.6609   24.6863  -79.5274 H         1 UNK         0.0747 
    114 H114      -78.8392   22.6913  -80.7559 H         1 UNK         0.0793 
    115 H115      -77.4944   23.7397  -80.3344 H         1 UNK         0.0793 
    116 H116      -77.7739   22.2672  -79.4161 H         1 UNK         0.0793 
    117 H117      -79.9264   22.0288  -78.2865 H         1 UNK         0.3047 
    118 H118      -83.2005   22.4420  -77.4076 H         1 UNK         0.0822 
    119 H119      -82.4122   20.1717  -76.8573 H         1 UNK         0.0807 
    120 H120      -80.7306   20.6550  -77.0067 H         1 UNK         0.0807 
    121 H121      -81.7818   20.6422  -78.4224 H         1 UNK         0.0807 
    122 H122      -83.0498   22.7755  -75.2188 H         1 UNK         0.2946 
    123 H123      -82.1005   23.8112  -73.3125 H         1 UNK         0.1144 
    124 H124      -82.5925   21.3411  -73.0063 H         1 UNK         0.0793 
    125 H125      -81.8992   22.0243  -71.5481 H         1 UNK         0.0793 
    126 H126      -80.9004   21.0511  -72.6256 H         1 UNK         0.0793 
    127 H127      -79.2713   23.5085  -73.4576 H         1 UNK         0.2896 
@<TRIPOS>BOND
     1    1    2 1    
     2    1   67 1    
     3    1   68 1    
     4    1   69 1    
     5    2    3 2    
     6    2    4 am   BACKBONE|DICT|INTERRES
     7    4    5 1    
     8    4   70 1    
     9    5    6 1    
    10    5   65 1    
    11    5   71 1    
    12    6    7 1    
    13    6   72 1    
    14    6   73 1    
    15    7    8 1    
    16    8    9 1    
    17    8   74 1    
    18    8   75 1    
    19    9   10 ar   
    20    9   14 ar   
    21   10   11 ar   
    22   10   76 1    
    23   11   12 ar   
    24   11   48 1    
    25   12   13 ar   
    26   12   77 1    
    27   13   14 ar   
    28   13   15 1    
    29   14   78 1    
    30   15   16 1    
    31   15   79 1    
    32   15   80 1    
    33   16   17 1    
    34   17   18 1    
    35   17   81 1    
    36   17   82 1    
    37   18   19 1    
    38   18   22 1    
    39   18   83 1    
    40   19   20 am   BACKBONE|DICT|INTERRES
    41   19   21 2    
    42   20   84 1    
    43   20   85 1    
    44   22   23 am   BACKBONE|DICT|INTERRES
    45   22   86 1    
    46   23   24 2    
    47   23   25 1    
    48   25   26 1    
    49   25   27 1    
    50   25   87 1    
    51   26   88 1    
    52   26   89 1    
    53   26   90 1    
    54   27   28 am   BACKBONE|DICT|INTERRES
    55   27   91 1    
    56   28   29 2    
    57   28   30 1    
    58   30   31 1    
    59   30   32 1    
    60   30   92 1    
    61   31   93 1    
    62   31   94 1    
    63   31   95 1    
    64   32   33 am   BACKBONE|DICT|INTERRES
    65   32   96 1    
    66   33   34 2    
    67   33   35 1    
    68   35   36 1    
    69   35   37 1    
    70   35   97 1    
    71   36   98 1    
    72   36   99 1    
    73   36  100 1    
    74   37   38 am   BACKBONE|DICT|INTERRES
    75   37  101 1    
    76   38   39 2    
    77   38   40 1    
    78   40   41 1    
    79   40   42 1    
    80   40  102 1    
    81   41  103 1    
    82   41  104 1    
    83   41  105 1    
    84   42   43 am   BACKBONE|DICT|INTERRES
    85   42  106 1    
    86   43   44 2    
    87   43   45 1    
    88   45   46 1    
    89   45   49 1    
    90   45  107 1    
    91   46   47 1    
    92   46  108 1    
    93   46  109 1    
    94   47   48 1    
    95   48  110 1    
    96   48  111 1    
    97   49   50 am   BACKBONE|DICT|INTERRES
    98   49  112 1    
    99   50   51 2    
   100   50   52 1    
   101   52   53 1    
   102   52   54 1    
   103   52  113 1    
   104   53  114 1    
   105   53  115 1    
   106   53  116 1    
   107   54   55 am   BACKBONE|DICT|INTERRES
   108   54  117 1    
   109   55   56 2    
   110   55   57 1    
   111   57   58 1    
   112   57   59 1    
   113   57  118 1    
   114   58  119 1    
   115   58  120 1    
   116   58  121 1    
   117   59   60 am   BACKBONE|DICT|INTERRES
   118   59  122 1    
   119   60   61 2    
   120   60   62 1    
   121   62   63 1    
   122   62   64 1    
   123   62  123 1    
   124   63  124 1    
   125   63  125 1    
   126   63  126 1    
   127   64   65 am   BACKBONE|DICT|INTERRES
   128   64  127 1    
   129   65   66 2    
@<TRIPOS>SUBSTRUCTURE
     1 UNK         1 GROUP             0       ****    0 ROOT    
