@<TRIPOS>MOLECULE
3R135
127   129    1
SMALL
USER_CHARGES


@<TRIPOS>ATOM
      1 CA        -81.2300   25.3194  -70.4841 C.3       0 UNK        -0.1998 
      2 C         -82.1504   25.8814  -71.5569 C.2       0 UNK         0.4909 
      3 O         -83.3166   25.4933  -71.6303 O.2       0 UNK        -0.5240 
      4 N         -81.6317   26.7896  -72.3937 N.am      1 UNK        -0.4739 
      5 CA        -82.3546   27.3971  -73.5211 C.3       1 UNK         0.0864 
      6 C6        -81.6509   28.6799  -74.0271 C.3       11 UNK        -0.0881 
      7 S7        -81.5908   29.9996  -72.7729 S.3       11 UNK        -0.2682 
      8 C8        -80.0265   30.8375  -73.2177 C.3       11 UNK         0.0289 
      9 C9        -78.7341   30.1865  -72.7135 C.ar      11 UNK        -0.0687 
     10 C10       -78.7174   29.1211  -71.8013 C.ar      11 UNK        -0.0823 
     11 C11       -77.5090   28.6052  -71.3222 C.ar      11 UNK        -0.0830 
     12 C12       -76.3057   29.1682  -71.7544 C.ar      11 UNK        -0.1021 
     13 C13       -76.3006   30.2343  -72.6561 C.ar      11 UNK        -0.0753 
     14 C14       -77.5158   30.7303  -73.1372 C.ar      11 UNK        -0.0933 
     15 C15       -74.9867   30.9039  -73.0317 C.3       11 UNK         0.0166 
     16 S16       -74.5510   30.6988  -74.7863 S.3       11 UNK        -0.2615 
     17 C17       -72.9151   31.5215  -74.7866 C.3       11 UNK        -0.0865 
     18 CA        -71.7472   30.6304  -75.3100 C.3       10 UNK         0.0862 
     19 C         -70.3603   31.3416  -75.2605 C.2       10 UNK         0.5551 
     20 N         -70.2865   32.6076  -75.6511 N.am      10 UNK        -0.7319 
     21 O         -69.3367   30.7553  -74.9120 O.2       10 UNK        -0.5018 
     22 N         -71.7305   29.2786  -74.7291 N.am      10 UNK        -0.4509 
     23 C         -71.5977   28.9481  -73.4369 C.2       10 UNK         0.4899 
     24 O         -71.4593   29.7705  -72.5302 O.2       10 UNK        -0.4839 
     25 CA        -71.6467   27.4455  -73.0905 C.3       9 UNK         0.0222 
     26 CB        -72.5069   27.1816  -71.8413 C.3       9 UNK        -0.1966 
     27 N         -72.1824   26.6568  -74.2039 N.am      9 UNK        -0.4218 
     28 C         -71.4641   25.8729  -75.0183 C.2       9 UNK         0.5020 
     29 O         -70.2666   25.6300  -74.8633 O.2       9 UNK        -0.5274 
     30 CA        -72.1963   25.2921  -76.2422 C.3       8 UNK         0.0270 
     31 CB        -73.0223   24.0578  -75.8470 C.3       8 UNK        -0.1976 
     32 N         -73.0634   26.2609  -76.9211 N.am      8 UNK        -0.4313 
     33 C         -72.6803   27.4298  -77.4524 C.2       8 UNK         0.5041 
     34 O         -71.5164   27.8290  -77.4439 O.2       8 UNK        -0.5577 
     35 CA        -73.7692   28.3452  -78.0448 C.3       7 UNK         0.0284 
     36 CB        -74.0510   28.0036  -79.5213 C.3       7 UNK        -0.1958 
     37 N         -74.9985   28.4007  -77.2403 N.am      7 UNK        -0.4454 
     38 C         -75.8963   27.4302  -77.0359 C.2       7 UNK         0.5089 
     39 O         -75.8578   26.3267  -77.5824 O.2       7 UNK        -0.5125 
     40 CA        -76.9901   27.7183  -75.9996 C.3       6 UNK         0.0408 
     41 CB        -78.3446   27.9139  -76.6962 C.3       6 UNK        -0.1791 
     42 N         -77.0857   26.6268  -75.0286 N.am      6 UNK        -0.4762 
     43 C         -76.1045   26.2630  -74.1880 C.2       6 UNK         0.5007 
     44 O         -75.0101   26.8258  -74.1351 O.2       6 UNK        -0.5032 
     45 CA        -76.3618   25.0367  -73.2961 C.3       5 UNK         0.0783 
     46 C46       -77.3240   25.3495  -72.1218 C.3       11 UNK        -0.0857 
     47 S47       -76.4446   26.0837  -70.7046 S.3       11 UNK        -0.2512 
     48 C48       -77.5093   27.4989  -70.2729 C.3       11 UNK         0.0225 
     49 N         -76.8456   23.9177  -74.1062 N.am      5 UNK        -0.4615 
     50 C         -76.2870   22.7000  -74.1501 C.2       4 UNK         0.5053 
     51 O         -75.2962   22.3793  -73.4934 O.2       4 UNK        -0.5105 
     52 CA        -76.9386   21.6431  -75.0655 C.3       4 UNK         0.0263 
     53 CB        -77.7737   20.6570  -74.2324 C.3       4 UNK        -0.1981 
     54 N         -77.7896   22.2232  -76.1053 N.am      4 UNK        -0.4224 
     55 C         -77.3431   22.9082  -77.1665 C.2       3 UNK         0.4895 
     56 O         -76.1536   22.9751  -77.4750 O.2       3 UNK        -0.5091 
     57 CA        -78.3877   23.6564  -78.0227 C.3       3 UNK         0.0250 
     58 CB        -78.5181   22.9977  -79.4063 C.3       3 UNK        -0.1996 
     59 N         -79.7305   23.7907  -77.4328 N.am      3 UNK        -0.4254 
     60 C         -80.0259   24.3947  -76.2737 C.2       2 UNK         0.5004 
     61 O         -79.1758   24.8402  -75.4965 O.2       2 UNK        -0.5226 
     62 CA        -81.5085   24.4764  -75.8934 C.3       2 UNK         0.0269 
     63 CB        -82.0319   23.1080  -75.4239 C.3       2 UNK        -0.1926 
     64 N         -81.6332   25.4331  -74.7996 N.am      2 UNK        -0.4687 
     65 C         -82.5410   26.4083  -74.6927 C.2       1 UNK         0.5165 
     66 O         -83.4799   26.5586  -75.4759 O.2       1 UNK        -0.5079 
     67 H67       -81.3670   24.2418  -70.3977 H         1 UNK         0.0900 
     68 H68       -81.4581   25.7704  -69.5188 H         1 UNK         0.0900 
     69 H69       -80.1813   25.5036  -70.7121 H         1 UNK         0.0900 
     70 H70       -80.6756   27.0875  -72.2783 H         1 UNK         0.2959 
     71 H71       -83.3554   27.6691  -73.1775 H         1 UNK         0.1079 
     72 H72       -80.6340   28.4470  -74.3427 H         1 UNK         0.0837 
     73 H73       -82.1615   29.0848  -74.9036 H         1 UNK         0.0837 
     74 H74       -79.9808   30.9433  -74.3029 H         1 UNK         0.0685 
     75 H75       -80.0697   31.8503  -72.8149 H         1 UNK         0.0685 
     76 H76       -79.6427   28.7131  -71.4247 H         1 UNK         0.1434 
     77 H77       -75.3720   28.7933  -71.3602 H         1 UNK         0.1329 
     78 H78       -77.5106   31.5689  -73.8204 H         1 UNK         0.1335 
     79 H79       -75.0540   31.9685  -72.8033 H         1 UNK         0.0680 
     80 H80       -74.1745   30.5090  -72.4194 H         1 UNK         0.0680 
     81 H81       -72.6822   31.8811  -73.7828 H         1 UNK         0.1032 
     82 H82       -73.0128   32.4167  -75.4019 H         1 UNK         0.1032 
     83 H83       -71.9275   30.4615  -76.3714 H         1 UNK         0.0461 
     84 H84       -69.3900   33.0688  -75.6356 H         1 UNK         0.3453 
     85 H85       -71.0981   33.1094  -75.9741 H         1 UNK         0.3453 
     86 H86       -71.7453   28.5288  -75.4080 H         1 UNK         0.2984 
     87 H87       -70.6236   27.1390  -72.8655 H         1 UNK         0.0554 
     88 H88       -72.5356   26.1199  -71.5962 H         1 UNK         0.0847 
     89 H89       -73.5335   27.5173  -71.9847 H         1 UNK         0.0847 
     90 H90       -72.1105   27.7037  -70.9697 H         1 UNK         0.0847 
     91 H91       -73.1800   26.7745  -74.3815 H         1 UNK         0.3141 
     92 H92       -71.4370   24.9787  -76.9614 H         1 UNK         0.0743 
     93 H93       -73.8263   24.3152  -75.1574 H         1 UNK         0.0784 
     94 H94       -73.4722   23.5838  -76.7197 H         1 UNK         0.0784 
     95 H95       -72.3994   23.3088  -75.3561 H         1 UNK         0.0784 
     96 H96       -74.0491   26.0235  -77.0044 H         1 UNK         0.3213 
     97 H97       -73.3676   29.3594  -78.0232 H         1 UNK         0.0855 
     98 H98       -73.1441   28.1025  -80.1191 H         1 UNK         0.0814 
     99 H99       -74.7958   28.6748  -79.9488 H         1 UNK         0.0814 
    100 H100      -74.4075   26.9812  -79.6483 H         1 UNK         0.0814 
    101 H101      -75.0962   29.2393  -76.6802 H         1 UNK         0.3105 
    102 H102      -76.7457   28.6303  -75.4514 H         1 UNK         0.0547 
    103 H103      -78.3069   28.7528  -77.3922 H         1 UNK         0.0837 
    104 H104      -78.6371   27.0311  -77.2656 H         1 UNK         0.0837 
    105 H105      -79.1330   28.1256  -75.9780 H         1 UNK         0.0837 
    106 H106      -77.9234   26.0525  -75.0879 H         1 UNK         0.3020 
    107 H107      -75.3895   24.7672  -72.8762 H         1 UNK         0.1245 
    108 H108      -77.7798   24.4276  -71.7567 H         1 UNK         0.0781 
    109 H109      -78.1542   25.9838  -72.4376 H         1 UNK         0.0781 
    110 H110      -77.1558   27.9203  -69.3310 H         1 UNK         0.0836 
    111 H111      -78.5198   27.1376  -70.0805 H         1 UNK         0.0836 
    112 H112      -77.6535   24.1097  -74.6923 H         1 UNK         0.3022 
    113 H113      -76.1329   21.0880  -75.5509 H         1 UNK         0.0747 
    114 H114      -78.1880   19.8630  -74.8541 H         1 UNK         0.0793 
    115 H115      -77.1625   20.1794  -73.4652 H         1 UNK         0.0793 
    116 H116      -78.6012   21.1555  -73.7258 H         1 UNK         0.0793 
    117 H117      -78.7845   22.2096  -75.9384 H         1 UNK         0.3047 
    118 H118      -77.9982   24.6667  -78.1640 H         1 UNK         0.0822 
    119 H119      -79.1602   23.5812  -80.0664 H         1 UNK         0.0807 
    120 H120      -78.9312   21.9908  -79.3358 H         1 UNK         0.0807 
    121 H121      -77.5461   22.9176  -79.8955 H         1 UNK         0.0807 
    122 H122      -80.4918   23.4294  -77.9903 H         1 UNK         0.2946 
    123 H123      -82.0726   24.8161  -76.7652 H         1 UNK         0.1144 
    124 H124      -81.9735   22.3653  -76.2205 H         1 UNK         0.0793 
    125 H125      -83.0768   23.1711  -75.1195 H         1 UNK         0.0793 
    126 H126      -81.4620   22.7264  -74.5755 H         1 UNK         0.0793 
    127 H127      -80.8567   25.4271  -74.1524 H         1 UNK         0.2896 
@<TRIPOS>BOND
     1    1    2 1    
     2    1   67 1    
     3    1   68 1    
     4    1   69 1    
     5    2    3 2    
     6    2    4 am   BACKBONE|DICT|INTERRES
     7    4    5 1    
     8    4   70 1    
     9    5    6 1    
    10    5   65 1    
    11    5   71 1    
    12    6    7 1    
    13    6   72 1    
    14    6   73 1    
    15    7    8 1    
    16    8    9 1    
    17    8   74 1    
    18    8   75 1    
    19    9   10 ar   
    20    9   14 ar   
    21   10   11 ar   
    22   10   76 1    
    23   11   12 ar   
    24   11   48 1    
    25   12   13 ar   
    26   12   77 1    
    27   13   14 ar   
    28   13   15 1    
    29   14   78 1    
    30   15   16 1    
    31   15   79 1    
    32   15   80 1    
    33   16   17 1    
    34   17   18 1    
    35   17   81 1    
    36   17   82 1    
    37   18   19 1    
    38   18   22 1    
    39   18   83 1    
    40   19   20 am   BACKBONE|DICT|INTERRES
    41   19   21 2    
    42   20   84 1    
    43   20   85 1    
    44   22   23 am   BACKBONE|DICT|INTERRES
    45   22   86 1    
    46   23   24 2    
    47   23   25 1    
    48   25   26 1    
    49   25   27 1    
    50   25   87 1    
    51   26   88 1    
    52   26   89 1    
    53   26   90 1    
    54   27   28 am   BACKBONE|DICT|INTERRES
    55   27   91 1    
    56   28   29 2    
    57   28   30 1    
    58   30   31 1    
    59   30   32 1    
    60   30   92 1    
    61   31   93 1    
    62   31   94 1    
    63   31   95 1    
    64   32   33 am   BACKBONE|DICT|INTERRES
    65   32   96 1    
    66   33   34 2    
    67   33   35 1    
    68   35   36 1    
    69   35   37 1    
    70   35   97 1    
    71   36   98 1    
    72   36   99 1    
    73   36  100 1    
    74   37   38 am   BACKBONE|DICT|INTERRES
    75   37  101 1    
    76   38   39 2    
    77   38   40 1    
    78   40   41 1    
    79   40   42 1    
    80   40  102 1    
    81   41  103 1    
    82   41  104 1    
    83   41  105 1    
    84   42   43 am   BACKBONE|DICT|INTERRES
    85   42  106 1    
    86   43   44 2    
    87   43   45 1    
    88   45   46 1    
    89   45   49 1    
    90   45  107 1    
    91   46   47 1    
    92   46  108 1    
    93   46  109 1    
    94   47   48 1    
    95   48  110 1    
    96   48  111 1    
    97   49   50 am   BACKBONE|DICT|INTERRES
    98   49  112 1    
    99   50   51 2    
   100   50   52 1    
   101   52   53 1    
   102   52   54 1    
   103   52  113 1    
   104   53  114 1    
   105   53  115 1    
   106   53  116 1    
   107   54   55 am   BACKBONE|DICT|INTERRES
   108   54  117 1    
   109   55   56 2    
   110   55   57 1    
   111   57   58 1    
   112   57   59 1    
   113   57  118 1    
   114   58  119 1    
   115   58  120 1    
   116   58  121 1    
   117   59   60 am   BACKBONE|DICT|INTERRES
   118   59  122 1    
   119   60   61 2    
   120   60   62 1    
   121   62   63 1    
   122   62   64 1    
   123   62  123 1    
   124   63  124 1    
   125   63  125 1    
   126   63  126 1    
   127   64   65 am   BACKBONE|DICT|INTERRES
   128   64  127 1    
   129   65   66 2    
@<TRIPOS>SUBSTRUCTURE
     1 UNK         1 GROUP             0       ****    0 ROOT    
