@<TRIPOS>MOLECULE
3R135
127   129    1
SMALL
USER_CHARGES


@<TRIPOS>ATOM
      1 CA        -83.8902   23.4930  -69.6000 C.3       0 UNK        -0.1998 
      2 C         -83.4156   24.8891  -69.9736 C.2       0 UNK         0.4909 
      3 O         -84.2097   25.8299  -69.9637 O.2       0 UNK        -0.5240 
      4 N         -82.1253   25.0311  -70.3047 N.am      1 UNK        -0.4739 
      5 CA        -81.4958   26.2955  -70.7107 C.3       1 UNK         0.0864 
      6 C6        -79.9493   26.2063  -70.6075 C.3       11 UNK        -0.0881 
      7 S7        -79.1951   24.9765  -71.7403 S.3       11 UNK        -0.2682 
      8 C8        -77.5919   25.7588  -72.1369 C.3       11 UNK         0.0289 
      9 C9        -77.6702   27.1134  -72.8442 C.ar      11 UNK        -0.0687 
     10 C10       -78.7388   27.4635  -73.6790 C.ar      11 UNK        -0.0823 
     11 C11       -78.7623   28.6983  -74.3368 C.ar      11 UNK        -0.0830 
     12 C12       -77.7022   29.5910  -74.1588 C.ar      11 UNK        -0.1021 
     13 C13       -76.6177   29.2463  -73.3486 C.ar      11 UNK        -0.0753 
     14 C14       -76.6135   28.0158  -72.6870 C.ar      11 UNK        -0.0933 
     15 C15       -75.4298   30.1845  -73.2252 C.3       11 UNK         0.0166 
     16 S16       -74.2183   29.8229  -74.5279 S.3       11 UNK        -0.2615 
     17 C17       -73.0276   31.1806  -74.2824 C.3       11 UNK        -0.0865 
     18 CA        -71.7406   30.9928  -75.1379 C.3       10 UNK         0.0862 
     19 C         -70.8358   32.2638  -75.1669 C.2       10 UNK         0.5551 
     20 N         -69.5262   32.1334  -75.3412 N.am      10 UNK        -0.7319 
     21 O         -71.3256   33.3862  -75.0648 O.2       10 UNK        -0.5018 
     22 N         -71.0365   29.7306  -74.8391 N.am      10 UNK        -0.4509 
     23 C         -70.4128   29.4370  -73.6893 C.2       10 UNK         0.4899 
     24 O         -70.3349   30.2093  -72.7316 O.2       10 UNK        -0.4839 
     25 CA        -69.7620   28.0428  -73.6080 C.3       9 UNK         0.0222 
     26 CB        -69.0406   27.7923  -72.2663 C.3       9 UNK        -0.1966 
     27 N         -70.7035   26.9550  -73.8929 N.am      9 UNK        -0.4218 
     28 C         -71.8551   26.6681  -73.2681 C.2       9 UNK         0.5020 
     29 O         -72.3084   27.3184  -72.3244 O.2       9 UNK        -0.5274 
     30 CA        -72.6116   25.4209  -73.7767 C.3       8 UNK         0.0270 
     31 CB        -73.9597   25.2133  -73.0645 C.3       8 UNK        -0.1976 
     32 N         -72.8375   25.4366  -75.2265 N.am      8 UNK        -0.4313 
     33 C         -71.9060   25.1935  -76.1588 C.2       8 UNK         0.5041 
     34 O         -70.7358   24.9149  -75.8909 O.2       8 UNK        -0.5577 
     35 CA        -72.3249   25.3292  -77.6308 C.3       7 UNK         0.0284 
     36 CB        -73.0626   24.0678  -78.1073 C.3       7 UNK        -0.1958 
     37 N         -73.1513   26.5079  -77.8941 N.am      7 UNK        -0.4454 
     38 C         -72.7919   27.7849  -77.7072 C.2       7 UNK         0.5089 
     39 O         -71.6933   28.1341  -77.2714 O.2       7 UNK        -0.5125 
     40 CA        -73.8415   28.8610  -78.0464 C.3       6 UNK         0.0408 
     41 CB        -73.8468   29.1924  -79.5512 C.3       6 UNK        -0.1791 
     42 N         -75.1850   28.5539  -77.5331 N.am      6 UNK        -0.4762 
     43 C         -76.0343   27.5974  -77.9331 C.2       6 UNK         0.5007 
     44 O         -75.8432   26.8712  -78.9117 O.2       6 UNK        -0.5032 
     45 CA        -77.2799   27.3787  -77.0540 C.3       5 UNK         0.0783 
     46 C46       -78.4917   28.1839  -77.5885 C.3       11 UNK        -0.0857 
     47 S47       -80.0381   27.8761  -76.6660 S.3       11 UNK        -0.2512 
     48 C48       -79.9084   29.0495  -75.2757 C.3       11 UNK         0.0225 
     49 N         -77.5698   25.9518  -76.8808 N.am      5 UNK        -0.4615 
     50 C         -76.7477   25.0869  -76.2750 C.2       4 UNK         0.5053 
     51 O         -75.6556   25.4038  -75.8004 O.2       4 UNK        -0.5105 
     52 CA        -77.2415   23.6397  -76.1717 C.3       4 UNK         0.0263 
     53 CB        -76.2963   22.7346  -75.3542 C.3       4 UNK        -0.1981 
     54 N         -78.5882   23.5962  -75.5970 N.am      4 UNK        -0.4224 
     55 C         -79.4897   22.6449  -75.8711 C.2       3 UNK         0.4895 
     56 O         -79.3203   21.7697  -76.7213 O.2       3 UNK        -0.5091 
     57 CA        -80.7833   22.6240  -75.0426 C.3       3 UNK         0.0250 
     58 CB        -80.6223   21.6687  -73.8476 C.3       3 UNK        -0.1996 
     59 N         -81.1956   23.9359  -74.5386 N.am      3 UNK        -0.4254 
     60 C         -82.0177   24.7744  -75.1891 C.2       2 UNK         0.5004 
     61 O         -82.3833   24.5961  -76.3515 O.2       2 UNK        -0.5226 
     62 CA        -82.5663   25.9804  -74.3992 C.3       2 UNK         0.0269 
     63 CB        -84.0685   26.2057  -74.6521 C.3       2 UNK        -0.1926 
     64 N         -82.3375   25.8131  -72.9631 N.am      2 UNK        -0.4687 
     65 C         -81.9348   26.7676  -72.1154 C.2       1 UNK         0.5165 
     66 O         -81.8607   27.9603  -72.4104 O.2       1 UNK        -0.5079 
     67 H67       -84.6851   23.1741  -70.2736 H         1 UNK         0.0900 
     68 H68       -83.0853   22.7601  -69.6543 H         1 UNK         0.0900 
     69 H69       -84.2830   23.4901  -68.5836 H         1 UNK         0.0900 
     70 H70       -81.5104   24.2292  -70.2821 H         1 UNK         0.2959 
     71 H71       -81.8285   27.0661  -70.0113 H         1 UNK         0.1079 
     72 H72       -79.6623   25.9475  -69.5871 H         1 UNK         0.0837 
     73 H73       -79.5123   27.1901  -70.7881 H         1 UNK         0.0837 
     74 H74       -77.0254   25.8561  -71.2094 H         1 UNK         0.0685 
     75 H75       -77.0271   25.0759  -72.7725 H         1 UNK         0.0685 
     76 H76       -79.5507   26.7712  -73.8409 H         1 UNK         0.1434 
     77 H77       -77.7009   30.5401  -74.6775 H         1 UNK         0.1329 
     78 H78       -75.7675   27.7519  -72.0667 H         1 UNK         0.1335 
     79 H79       -74.9571   30.0764  -72.2476 H         1 UNK         0.0680 
     80 H80       -75.7580   31.2221  -73.3043 H         1 UNK         0.0680 
     81 H81       -72.7777   31.2572  -73.2231 H         1 UNK         0.1032 
     82 H82       -73.5350   32.1106  -74.5452 H         1 UNK         0.1032 
     83 H83       -72.0624   30.8928  -76.1736 H         1 UNK         0.0461 
     84 H84       -69.1145   31.2194  -75.4395 H         1 UNK         0.3453 
     85 H85       -68.9457   32.9568  -75.3702 H         1 UNK         0.3453 
     86 H86       -71.0698   29.0358  -75.5788 H         1 UNK         0.2984 
     87 H87       -69.0088   28.0090  -74.3965 H         1 UNK         0.0554 
     88 H88       -68.2736   28.5470  -72.0881 H         1 UNK         0.0847 
     89 H89       -68.5464   26.8209  -72.2562 H         1 UNK         0.0847 
     90 H90       -69.7312   27.8257  -71.4228 H         1 UNK         0.0847 
     91 H91       -70.4547   26.3393  -74.6649 H         1 UNK         0.3141 
     92 H92       -71.9842   24.5593  -73.5388 H         1 UNK         0.0743 
     93 H93       -74.6534   26.0214  -73.2941 H         1 UNK         0.0784 
     94 H94       -74.4254   24.2767  -73.3682 H         1 UNK         0.0784 
     95 H95       -73.8385   25.1770  -71.9812 H         1 UNK         0.0784 
     96 H96       -73.7912   25.6302  -75.5278 H         1 UNK         0.3213 
     97 H97       -71.4124   25.4339  -78.2215 H         1 UNK         0.0855 
     98 H98       -74.0129   23.9351  -77.5897 H         1 UNK         0.0814 
     99 H99       -72.4644   23.1735  -77.9269 H         1 UNK         0.0814 
    100 H100      -73.2678   24.1090  -79.1772 H         1 UNK         0.0814 
    101 H101      -74.0855   26.3462  -78.2587 H         1 UNK         0.3105 
    102 H102      -73.5397   29.7694  -77.5262 H         1 UNK         0.0547 
    103 H103      -72.8670   29.5510  -79.8691 H         1 UNK         0.0837 
    104 H104      -74.0833   28.3240  -80.1662 H         1 UNK         0.0837 
    105 H105      -74.5688   29.9752  -79.7828 H         1 UNK         0.0837 
    106 H106      -75.4161   29.0583  -76.6862 H         1 UNK         0.3020 
    107 H107      -77.0241   27.7488  -76.0621 H         1 UNK         0.1245 
    108 H108      -78.2783   29.2544  -77.5719 H         1 UNK         0.0781 
    109 H109      -78.6817   27.9299  -78.6332 H         1 UNK         0.0781 
    110 H110      -80.8424   29.0417  -74.7131 H         1 UNK         0.0836 
    111 H111      -79.8000   30.0610  -75.6700 H         1 UNK         0.0836 
    112 H112      -78.4468   25.6240  -77.2574 H         1 UNK         0.3022 
    113 H113      -77.2692   23.2630  -77.1964 H         1 UNK         0.0747 
    114 H114      -76.6139   21.6927  -75.3929 H         1 UNK         0.0793 
    115 H115      -75.2764   22.7733  -75.7389 H         1 UNK         0.0793 
    116 H116      -76.2650   23.0342  -74.3067 H         1 UNK         0.0793 
    117 H117      -78.8054   24.2987  -74.9047 H         1 UNK         0.3047 
    118 H118      -81.5724   22.2241  -75.6838 H         1 UNK         0.0822 
    119 H119      -81.5535   21.5703  -73.2894 H         1 UNK         0.0807 
    120 H120      -79.8501   22.0097  -73.1565 H         1 UNK         0.0807 
    121 H121      -80.3409   20.6688  -74.1817 H         1 UNK         0.0807 
    122 H122      -80.8936   24.1769  -73.6054 H         1 UNK         0.2946 
    123 H123      -82.0229   26.8560  -74.7564 H         1 UNK         0.1144 
    124 H124      -84.2679   26.3850  -75.7094 H         1 UNK         0.0793 
    125 H125      -84.4353   27.0741  -74.1045 H         1 UNK         0.0793 
    126 H126      -84.6608   25.3423  -74.3472 H         1 UNK         0.0793 
    127 H127      -82.4242   24.8735  -72.6022 H         1 UNK         0.2896 
@<TRIPOS>BOND
     1    1    2 1    
     2    1   67 1    
     3    1   68 1    
     4    1   69 1    
     5    2    3 2    
     6    2    4 am   BACKBONE|DICT|INTERRES
     7    4    5 1    
     8    4   70 1    
     9    5    6 1    
    10    5   65 1    
    11    5   71 1    
    12    6    7 1    
    13    6   72 1    
    14    6   73 1    
    15    7    8 1    
    16    8    9 1    
    17    8   74 1    
    18    8   75 1    
    19    9   10 ar   
    20    9   14 ar   
    21   10   11 ar   
    22   10   76 1    
    23   11   12 ar   
    24   11   48 1    
    25   12   13 ar   
    26   12   77 1    
    27   13   14 ar   
    28   13   15 1    
    29   14   78 1    
    30   15   16 1    
    31   15   79 1    
    32   15   80 1    
    33   16   17 1    
    34   17   18 1    
    35   17   81 1    
    36   17   82 1    
    37   18   19 1    
    38   18   22 1    
    39   18   83 1    
    40   19   20 am   BACKBONE|DICT|INTERRES
    41   19   21 2    
    42   20   84 1    
    43   20   85 1    
    44   22   23 am   BACKBONE|DICT|INTERRES
    45   22   86 1    
    46   23   24 2    
    47   23   25 1    
    48   25   26 1    
    49   25   27 1    
    50   25   87 1    
    51   26   88 1    
    52   26   89 1    
    53   26   90 1    
    54   27   28 am   BACKBONE|DICT|INTERRES
    55   27   91 1    
    56   28   29 2    
    57   28   30 1    
    58   30   31 1    
    59   30   32 1    
    60   30   92 1    
    61   31   93 1    
    62   31   94 1    
    63   31   95 1    
    64   32   33 am   BACKBONE|DICT|INTERRES
    65   32   96 1    
    66   33   34 2    
    67   33   35 1    
    68   35   36 1    
    69   35   37 1    
    70   35   97 1    
    71   36   98 1    
    72   36   99 1    
    73   36  100 1    
    74   37   38 am   BACKBONE|DICT|INTERRES
    75   37  101 1    
    76   38   39 2    
    77   38   40 1    
    78   40   41 1    
    79   40   42 1    
    80   40  102 1    
    81   41  103 1    
    82   41  104 1    
    83   41  105 1    
    84   42   43 am   BACKBONE|DICT|INTERRES
    85   42  106 1    
    86   43   44 2    
    87   43   45 1    
    88   45   46 1    
    89   45   49 1    
    90   45  107 1    
    91   46   47 1    
    92   46  108 1    
    93   46  109 1    
    94   47   48 1    
    95   48  110 1    
    96   48  111 1    
    97   49   50 am   BACKBONE|DICT|INTERRES
    98   49  112 1    
    99   50   51 2    
   100   50   52 1    
   101   52   53 1    
   102   52   54 1    
   103   52  113 1    
   104   53  114 1    
   105   53  115 1    
   106   53  116 1    
   107   54   55 am   BACKBONE|DICT|INTERRES
   108   54  117 1    
   109   55   56 2    
   110   55   57 1    
   111   57   58 1    
   112   57   59 1    
   113   57  118 1    
   114   58  119 1    
   115   58  120 1    
   116   58  121 1    
   117   59   60 am   BACKBONE|DICT|INTERRES
   118   59  122 1    
   119   60   61 2    
   120   60   62 1    
   121   62   63 1    
   122   62   64 1    
   123   62  123 1    
   124   63  124 1    
   125   63  125 1    
   126   63  126 1    
   127   64   65 am   BACKBONE|DICT|INTERRES
   128   64  127 1    
   129   65   66 2    
@<TRIPOS>SUBSTRUCTURE
     1 UNK         1 GROUP             0       ****    0 ROOT    
