@<TRIPOS>MOLECULE
3R135
127   129    1
SMALL
USER_CHARGES


@<TRIPOS>ATOM
      1 CA        -84.6249   24.8397  -69.3124 C.3       0 UNK        -0.1998 
      2 C         -84.2006   25.1131  -70.7474 C.2       0 UNK         0.4909 
      3 O         -84.9677   24.8486  -71.6736 O.2       0 UNK        -0.5240 
      4 N         -82.9849   25.6427  -70.9380 N.am      1 UNK        -0.4739 
      5 CA        -82.4086   25.9756  -72.2491 C.3       1 UNK         0.0864 
      6 C6        -81.1541   26.8754  -72.1137 C.3       11 UNK        -0.0881 
      7 S7        -81.5392   28.4695  -71.3158 S.3       11 UNK        -0.2682 
      8 C8        -81.1313   29.6507  -72.6495 C.3       11 UNK         0.0289 
      9 C9        -79.6442   29.9677  -72.8442 C.ar      11 UNK        -0.0687 
     10 C10       -79.2825   30.7721  -73.9302 C.ar      11 UNK        -0.0823 
     11 C11       -77.9537   31.1576  -74.1338 C.ar      11 UNK        -0.0830 
     12 C12       -76.9731   30.7319  -73.2325 C.ar      11 UNK        -0.1021 
     13 C13       -77.3087   29.9026  -72.1595 C.ar      11 UNK        -0.0753 
     14 C14       -78.6416   29.5265  -71.9682 C.ar      11 UNK        -0.0933 
     15 C15       -76.2323   29.4255  -71.1977 C.3       11 UNK         0.0166 
     16 S16       -75.4463   27.8996  -71.8049 S.3       11 UNK        -0.2615 
     17 C17       -73.6802   28.3593  -71.7806 C.3       11 UNK        -0.0865 
     18 CA        -73.2170   28.9607  -73.1450 C.3       10 UNK         0.0862 
     19 C         -72.6867   30.4242  -73.0444 C.2       10 UNK         0.5551 
     20 N         -71.6983   30.8261  -73.8340 N.am      10 UNK        -0.7319 
     21 O         -73.2062   31.2234  -72.2701 O.2       10 UNK        -0.5018 
     22 N         -72.3762   28.0309  -73.9198 N.am      10 UNK        -0.4509 
     23 C         -71.1414   27.6156  -73.6054 C.2       10 UNK         0.4899 
     24 O         -70.5512   27.9541  -72.5787 O.2       10 UNK        -0.4839 
     25 CA        -70.4353   26.6970  -74.6254 C.3       9 UNK         0.0222 
     26 CB        -69.2890   25.8730  -73.9999 C.3       9 UNK        -0.1966 
     27 N         -71.3494   25.8377  -75.3898 N.am      9 UNK        -0.4218 
     28 C         -72.1418   24.8607  -74.9161 C.2       9 UNK         0.5020 
     29 O         -72.1844   24.5331  -73.7295 O.2       9 UNK        -0.5274 
     30 CA        -73.0414   24.1252  -75.9310 C.3       8 UNK         0.0270 
     31 CB        -74.4293   23.8165  -75.3451 C.3       8 UNK        -0.1976 
     32 N         -73.2252   24.9147  -77.1485 N.am      8 UNK        -0.4313 
     33 C         -72.7615   24.6059  -78.3662 C.2       8 UNK         0.5041 
     34 O         -72.1762   23.5553  -78.6306 O.2       8 UNK        -0.5577 
     35 CA        -72.9567   25.6548  -79.4800 C.3       7 UNK         0.0284 
     36 CB        -74.1189   25.2544  -80.4026 C.3       7 UNK        -0.1958 
     37 N         -73.1787   27.0153  -78.9752 N.am      7 UNK        -0.4454 
     38 C         -72.2597   27.7379  -78.3169 C.2       7 UNK         0.5089 
     39 O         -71.1137   27.3445  -78.0997 O.2       7 UNK        -0.5125 
     40 CA        -72.7040   29.0909  -77.7314 C.3       6 UNK         0.0408 
     41 CB        -72.3816   30.2301  -78.7097 C.3       6 UNK        -0.1791 
     42 N         -74.1192   29.1652  -77.3508 N.am      6 UNK        -0.4762 
     43 C         -74.7565   28.3386  -76.5098 C.2       6 UNK         0.5007 
     44 O         -74.2115   27.3620  -75.9913 O.2       6 UNK        -0.5032 
     45 CA        -76.2412   28.6268  -76.1859 C.3       5 UNK         0.0783 
     46 C46       -76.8636   29.8418  -76.9298 C.3       11 UNK        -0.0857 
     47 S47       -76.2169   31.4384  -76.3201 S.3       11 UNK        -0.2512 
     48 C48       -77.5972   32.0661  -75.3064 C.3       11 UNK         0.0225 
     49 N         -77.0515   27.4160  -76.3310 N.am      5 UNK        -0.4615 
     50 C         -77.1554   26.6384  -77.4152 C.2       4 UNK         0.5053 
     51 O         -76.5857   26.8821  -78.4807 O.2       4 UNK        -0.5105 
     52 CA        -78.0342   25.3749  -77.2804 C.3       4 UNK         0.0263 
     53 CB        -77.9156   24.4449  -78.5030 C.3       4 UNK        -0.1981 
     54 N         -77.7610   24.5889  -76.0700 N.am      4 UNK        -0.4224 
     55 C         -78.1269   24.9125  -74.8233 C.2       3 UNK         0.4895 
     56 O         -78.7048   25.9607  -74.5301 O.2       3 UNK        -0.5091 
     57 CA        -77.7947   23.9042  -73.7132 C.3       3 UNK         0.0250 
     58 CB        -76.9357   24.5529  -72.6137 C.3       3 UNK        -0.1996 
     59 N         -79.0385   23.4237  -73.1204 N.am      3 UNK        -0.4254 
     60 C         -79.8674   22.5375  -73.6889 C.2       2 UNK         0.5004 
     61 O         -79.5923   21.8877  -74.6982 O.2       2 UNK        -0.5226 
     62 CA        -81.2504   22.3745  -73.0321 C.3       2 UNK         0.0269 
     63 CB        -81.2270   21.2496  -71.9848 C.3       2 UNK        -0.1926 
     64 N         -81.7252   23.6144  -72.4065 N.am      2 UNK        -0.4687 
     65 C         -82.0704   24.7224  -73.0826 C.2       1 UNK         0.5165 
     66 O         -82.1176   24.7829  -74.3119 O.2       1 UNK        -0.5079 
     67 H67       -84.8326   23.7785  -69.1784 H         1 UNK         0.0900 
     68 H68       -85.5310   25.3971  -69.0768 H         1 UNK         0.0900 
     69 H69       -83.8545   25.1277  -68.5972 H         1 UNK         0.0900 
     70 H70       -82.4109   25.8714  -70.1385 H         1 UNK         0.2959 
     71 H71       -83.1634   26.5289  -72.8128 H         1 UNK         0.1079 
     72 H72       -80.7108   27.0666  -73.0934 H         1 UNK         0.0837 
     73 H73       -80.3784   26.3771  -71.5294 H         1 UNK         0.0837 
     74 H74       -81.5538   29.2856  -73.5870 H         1 UNK         0.0685 
     75 H75       -81.6464   30.5864  -72.4283 H         1 UNK         0.0685 
     76 H76       -80.0489   31.1180  -74.6108 H         1 UNK         0.1434 
     77 H77       -75.9446   31.0365  -73.3725 H         1 UNK         0.1329 
     78 H78       -78.8851   28.8996  -71.1230 H         1 UNK         0.1335 
     79 H79       -76.6592   29.2354  -70.2118 H         1 UNK         0.0680 
     80 H80       -75.4934   30.2157  -71.0594 H         1 UNK         0.0680 
     81 H81       -73.1178   27.4558  -71.5409 H         1 UNK         0.1032 
     82 H82       -73.4901   29.0264  -70.9381 H         1 UNK         0.1032 
     83 H83       -74.0994   29.0875  -73.7705 H         1 UNK         0.0461 
     84 H84       -71.2613   30.1843  -74.4740 H         1 UNK         0.3453 
     85 H85       -71.3737   31.7780  -73.7704 H         1 UNK         0.3453 
     86 H86       -72.8127   27.6731  -74.7644 H         1 UNK         0.2984 
     87 H87       -69.9854   27.3674  -75.3590 H         1 UNK         0.0554 
     88 H88       -68.7956   25.2487  -74.7447 H         1 UNK         0.0847 
     89 H89       -69.6457   25.2237  -73.1999 H         1 UNK         0.0847 
     90 H90       -68.5267   26.5246  -73.5711 H         1 UNK         0.0847 
     91 H91       -71.3821   26.0312  -76.3843 H         1 UNK         0.3141 
     92 H92       -72.5474   23.1786  -76.1582 H         1 UNK         0.0743 
     93 H93       -74.3568   23.2224  -74.4332 H         1 UNK         0.0784 
     94 H94       -74.9623   24.7359  -75.1023 H         1 UNK         0.0784 
     95 H95       -75.0344   23.2498  -76.0521 H         1 UNK         0.0784 
     96 H96       -73.6758   25.8161  -77.0086 H         1 UNK         0.3213 
     97 H97       -72.0406   25.6669  -80.0746 H         1 UNK         0.0855 
     98 H98       -75.0655   25.2099  -79.8645 H         1 UNK         0.0814 
     99 H99       -73.9480   24.2692  -80.8388 H         1 UNK         0.0814 
    100 H100      -74.2336   25.9574  -81.2277 H         1 UNK         0.0814 
    101 H101      -74.1137   27.3913  -79.0680 H         1 UNK         0.3105 
    102 H102      -72.1219   29.2527  -76.8221 H         1 UNK         0.0547 
    103 H103      -72.9647   30.1513  -79.6280 H         1 UNK         0.0837 
    104 H104      -72.5831   31.2050  -78.2653 H         1 UNK         0.0837 
    105 H105      -71.3275   30.2174  -78.9910 H         1 UNK         0.0837 
    106 H106      -74.6397   29.9539  -77.7110 H         1 UNK         0.3020 
    107 H107      -76.2618   28.8417  -75.1173 H         1 UNK         0.1245 
    108 H108      -76.7104   29.7704  -78.0081 H         1 UNK         0.0781 
    109 H109      -77.9464   29.8397  -76.7936 H         1 UNK         0.0781 
    110 H110      -77.3250   33.0475  -74.9158 H         1 UNK         0.0836 
    111 H111      -78.4606   32.2247  -75.9546 H         1 UNK         0.0836 
    112 H112      -77.5630   27.1182  -75.5040 H         1 UNK         0.3022 
    113 H113      -79.0684   25.7222  -77.2301 H         1 UNK         0.0747 
    114 H114      -78.5984   23.5985  -78.4254 H         1 UNK         0.0793 
    115 H115      -78.1642   24.9720  -79.4252 H         1 UNK         0.0793 
    116 H116      -76.9042   24.0520  -78.6129 H         1 UNK         0.0793 
    117 H117      -77.2944   23.7059  -76.2167 H         1 UNK         0.3047 
    118 H118      -77.2446   23.0588  -74.1324 H         1 UNK         0.0822 
    119 H119      -76.6721   23.8323  -71.8395 H         1 UNK         0.0807 
    120 H120      -77.4521   25.3856  -72.1338 H         1 UNK         0.0807 
    121 H121      -76.0033   24.9471  -73.0179 H         1 UNK         0.0807 
    122 H122      -79.3691   23.9228  -72.3086 H         1 UNK         0.2946 
    123 H123      -81.9554   22.0986  -73.8199 H         1 UNK         0.1144 
    124 H124      -82.2185   21.0777  -71.5651 H         1 UNK         0.0793 
    125 H125      -80.5474   21.4751  -71.1621 H         1 UNK         0.0793 
    126 H126      -80.8984   20.3097  -72.4307 H         1 UNK         0.0793 
    127 H127      -81.7489   23.6435  -71.3972 H         1 UNK         0.2896 
@<TRIPOS>BOND
     1    1    2 1    
     2    1   67 1    
     3    1   68 1    
     4    1   69 1    
     5    2    3 2    
     6    2    4 am   BACKBONE|DICT|INTERRES
     7    4    5 1    
     8    4   70 1    
     9    5    6 1    
    10    5   65 1    
    11    5   71 1    
    12    6    7 1    
    13    6   72 1    
    14    6   73 1    
    15    7    8 1    
    16    8    9 1    
    17    8   74 1    
    18    8   75 1    
    19    9   10 ar   
    20    9   14 ar   
    21   10   11 ar   
    22   10   76 1    
    23   11   12 ar   
    24   11   48 1    
    25   12   13 ar   
    26   12   77 1    
    27   13   14 ar   
    28   13   15 1    
    29   14   78 1    
    30   15   16 1    
    31   15   79 1    
    32   15   80 1    
    33   16   17 1    
    34   17   18 1    
    35   17   81 1    
    36   17   82 1    
    37   18   19 1    
    38   18   22 1    
    39   18   83 1    
    40   19   20 am   BACKBONE|DICT|INTERRES
    41   19   21 2    
    42   20   84 1    
    43   20   85 1    
    44   22   23 am   BACKBONE|DICT|INTERRES
    45   22   86 1    
    46   23   24 2    
    47   23   25 1    
    48   25   26 1    
    49   25   27 1    
    50   25   87 1    
    51   26   88 1    
    52   26   89 1    
    53   26   90 1    
    54   27   28 am   BACKBONE|DICT|INTERRES
    55   27   91 1    
    56   28   29 2    
    57   28   30 1    
    58   30   31 1    
    59   30   32 1    
    60   30   92 1    
    61   31   93 1    
    62   31   94 1    
    63   31   95 1    
    64   32   33 am   BACKBONE|DICT|INTERRES
    65   32   96 1    
    66   33   34 2    
    67   33   35 1    
    68   35   36 1    
    69   35   37 1    
    70   35   97 1    
    71   36   98 1    
    72   36   99 1    
    73   36  100 1    
    74   37   38 am   BACKBONE|DICT|INTERRES
    75   37  101 1    
    76   38   39 2    
    77   38   40 1    
    78   40   41 1    
    79   40   42 1    
    80   40  102 1    
    81   41  103 1    
    82   41  104 1    
    83   41  105 1    
    84   42   43 am   BACKBONE|DICT|INTERRES
    85   42  106 1    
    86   43   44 2    
    87   43   45 1    
    88   45   46 1    
    89   45   49 1    
    90   45  107 1    
    91   46   47 1    
    92   46  108 1    
    93   46  109 1    
    94   47   48 1    
    95   48  110 1    
    96   48  111 1    
    97   49   50 am   BACKBONE|DICT|INTERRES
    98   49  112 1    
    99   50   51 2    
   100   50   52 1    
   101   52   53 1    
   102   52   54 1    
   103   52  113 1    
   104   53  114 1    
   105   53  115 1    
   106   53  116 1    
   107   54   55 am   BACKBONE|DICT|INTERRES
   108   54  117 1    
   109   55   56 2    
   110   55   57 1    
   111   57   58 1    
   112   57   59 1    
   113   57  118 1    
   114   58  119 1    
   115   58  120 1    
   116   58  121 1    
   117   59   60 am   BACKBONE|DICT|INTERRES
   118   59  122 1    
   119   60   61 2    
   120   60   62 1    
   121   62   63 1    
   122   62   64 1    
   123   62  123 1    
   124   63  124 1    
   125   63  125 1    
   126   63  126 1    
   127   64   65 am   BACKBONE|DICT|INTERRES
   128   64  127 1    
   129   65   66 2    
@<TRIPOS>SUBSTRUCTURE
     1 UNK         1 GROUP             0       ****    0 ROOT    
