@<TRIPOS>MOLECULE
3R135
127   129    1
SMALL
USER_CHARGES


@<TRIPOS>ATOM
      1 CA        -79.3815   22.3445  -77.7262 C.3       0 UNK        -0.1998 
      2 C         -79.4880   22.0099  -76.2471 C.2       0 UNK         0.4909 
      3 O         -80.0313   20.9612  -75.9001 O.2       0 UNK        -0.5240 
      4 N         -79.0110   22.8983  -75.3652 N.am      1 UNK        -0.4739 
      5 CA        -79.1020   22.7707  -73.9032 C.3       1 UNK         0.0864 
      6 C6        -77.8399   23.3046  -73.1672 C.3       11 UNK        -0.0881 
      7 S7        -77.2001   24.9272  -73.7168 S.3       11 UNK        -0.2682 
      8 C8        -77.9651   26.0652  -72.5201 C.3       11 UNK         0.0289 
      9 C9        -77.1568   27.3464  -72.3997 C.ar      11 UNK        -0.0687 
     10 C10       -77.3960   28.4174  -73.2658 C.ar      11 UNK        -0.0823 
     11 C11       -76.6077   29.5743  -73.2048 C.ar      11 UNK        -0.0830 
     12 C12       -75.6265   29.6722  -72.2141 C.ar      11 UNK        -0.1021 
     13 C13       -75.4014   28.6243  -71.3175 C.ar      11 UNK        -0.0753 
     14 C14       -76.1604   27.4562  -71.4254 C.ar      11 UNK        -0.0933 
     15 C15       -74.3436   28.7579  -70.2322 C.3       11 UNK         0.0166 
     16 S16       -72.6884   28.3680  -70.8776 S.3       11 UNK        -0.2615 
     17 C17       -71.7591   29.8881  -70.4720 C.3       11 UNK        -0.0865 
     18 CA        -72.0391   31.0706  -71.4391 C.3       10 UNK         0.0862 
     19 C         -71.2422   32.3402  -71.0191 C.2       10 UNK         0.5551 
     20 N         -70.3870   32.9017  -71.8651 N.am      10 UNK        -0.7319 
     21 O         -71.4097   32.8281  -69.9041 O.2       10 UNK        -0.5018 
     22 N         -71.8749   30.6793  -72.8493 N.am      10 UNK        -0.4509 
     23 C         -72.4932   31.2580  -73.8870 C.2       10 UNK         0.4899 
     24 O         -73.2695   32.2070  -73.7763 O.2       10 UNK        -0.4839 
     25 CA        -72.1939   30.6996  -75.2923 C.3       9 UNK         0.0222 
     26 CB        -71.3003   31.6750  -76.0766 C.3       9 UNK        -0.1966 
     27 N         -71.5627   29.3747  -75.2813 N.am      9 UNK        -0.4218 
     28 C         -72.2052   28.2326  -75.0055 C.2       9 UNK         0.5020 
     29 O         -73.4117   28.1599  -74.7603 O.2       9 UNK        -0.5274 
     30 CA        -71.3519   26.9589  -74.9823 C.3       8 UNK         0.0270 
     31 CB        -70.4752   26.9047  -73.7134 C.3       8 UNK        -0.1976 
     32 N         -72.2727   25.8302  -75.0323 N.am      8 UNK        -0.4313 
     33 C         -71.9764   24.5335  -75.1514 C.2       8 UNK         0.5041 
     34 O         -70.8317   24.0836  -75.2217 O.2       8 UNK        -0.5577 
     35 CA        -73.1767   23.5769  -75.2287 C.3       7 UNK         0.0284 
     36 CB        -73.7852   23.3496  -73.8350 C.3       7 UNK        -0.1958 
     37 N         -74.2116   24.0542  -76.1517 N.am      7 UNK        -0.4454 
     38 C         -74.0665   24.0995  -77.4848 C.2       7 UNK         0.5089 
     39 O         -73.0511   23.7334  -78.0776 O.2       7 UNK        -0.5125 
     40 CA        -75.2590   24.6158  -78.3055 C.3       6 UNK         0.0408 
     41 CB        -76.1458   23.4403  -78.7396 C.3       6 UNK        -0.1791 
     42 N         -76.0725   25.5993  -77.5878 N.am      6 UNK        -0.4762 
     43 C         -75.7432   26.8848  -77.4106 C.2       6 UNK         0.5007 
     44 O         -74.6982   27.3742  -77.8429 O.2       6 UNK        -0.5032 
     45 CA        -76.7634   27.7671  -76.6533 C.3       5 UNK         0.0783 
     46 C46       -76.3108   29.2533  -76.5605 C.3       11 UNK        -0.0857 
     47 S47       -77.5485   30.3493  -75.7770 S.3       11 UNK        -0.2512 
     48 C48       -76.7870   30.7499  -74.1663 C.3       11 UNK         0.0225 
     49 N         -78.1284   27.6594  -77.1896 N.am      5 UNK        -0.4615 
     50 C         -78.9836   26.6471  -77.0123 C.2       4 UNK         0.5053 
     51 O         -78.6768   25.5600  -76.5202 O.2       4 UNK        -0.5105 
     52 CA        -80.4346   26.8904  -77.4548 C.3       4 UNK         0.0263 
     53 CB        -80.8674   25.8688  -78.5183 C.3       4 UNK        -0.1981 
     54 N         -81.3465   26.8120  -76.3130 N.am      4 UNK        -0.4224 
     55 C         -81.3741   27.6597  -75.2765 C.2       3 UNK         0.4895 
     56 O         -80.6767   28.6708  -75.2071 O.2       3 UNK        -0.5091 
     57 CA        -82.3296   27.3435  -74.1097 C.3       3 UNK         0.0250 
     58 CB        -83.7126   27.9857  -74.3353 C.3       3 UNK        -0.1996 
     59 N         -82.4421   25.9176  -73.7659 N.am      3 UNK        -0.4254 
     60 C         -82.9870   24.9169  -74.4707 C.2       2 UNK         0.5004 
     61 O         -83.4792   25.0514  -75.5925 O.2       2 UNK        -0.5226 
     62 CA        -82.8840   23.5176  -73.8412 C.3       2 UNK         0.0269 
     63 CB        -83.9119   22.5332  -74.4287 C.3       2 UNK        -0.1926 
     64 N         -81.5413   22.9797  -74.0517 N.am      2 UNK        -0.4687 
     65 C         -80.4387   23.3476  -73.3853 C.2       1 UNK         0.5165 
     66 O         -80.4681   24.1138  -72.4204 O.2       1 UNK        -0.5079 
     67 H67       -80.3654   22.2997  -78.1920 H         1 UNK         0.0900 
     68 H68       -78.9779   23.3416  -77.8903 H         1 UNK         0.0900 
     69 H69       -78.7354   21.6252  -78.2283 H         1 UNK         0.0900 
     70 H70       -78.6697   23.7987  -75.6947 H         1 UNK         0.2959 
     71 H71       -79.1541   21.7080  -73.6549 H         1 UNK         0.1079 
     72 H72       -77.9854   23.3071  -72.0855 H         1 UNK         0.0837 
     73 H73       -77.0302   22.5929  -73.3316 H         1 UNK         0.0837 
     74 H74       -78.9823   26.2929  -72.8419 H         1 UNK         0.0685 
     75 H75       -78.0469   25.5865  -71.5433 H         1 UNK         0.0685 
     76 H76       -78.1815   28.3310  -74.0040 H         1 UNK         0.1434 
     77 H77       -75.0294   30.5697  -72.1455 H         1 UNK         0.1329 
     78 H78       -75.9758   26.6313  -70.7510 H         1 UNK         0.1335 
     79 H79       -74.3694   29.7680  -69.8211 H         1 UNK         0.0680 
     80 H80       -74.5642   28.0875  -69.4002 H         1 UNK         0.0680 
     81 H81       -70.6963   29.6393  -70.4845 H         1 UNK         0.1032 
     82 H82       -71.9850   30.1692  -69.4414 H         1 UNK         0.1032 
     83 H83       -73.0850   31.3461  -71.3014 H         1 UNK         0.0461 
     84 H84       -70.2491   32.5117  -72.7830 H         1 UNK         0.3453 
     85 H85       -69.8799   33.7257  -71.5828 H         1 UNK         0.3453 
     86 H86       -71.2649   29.8963  -73.0243 H         1 UNK         0.2984 
     87 H87       -73.1484   30.6196  -75.8172 H         1 UNK         0.0554 
     88 H88       -71.1475   31.3368  -77.1017 H         1 UNK         0.0847 
     89 H89       -70.3211   31.7931  -75.6112 H         1 UNK         0.0847 
     90 H90       -71.7559   32.6649  -76.1309 H         1 UNK         0.0847 
     91 H91       -70.5727   29.3414  -75.4809 H         1 UNK         0.3141 
     92 H92       -70.7234   26.9394  -75.8747 H         1 UNK         0.0743 
     93 H93       -69.8533   27.7950  -73.6171 H         1 UNK         0.0784 
     94 H94       -69.7997   26.0497  -73.7290 H         1 UNK         0.0784 
     95 H95       -71.0825   26.8284  -72.8118 H         1 UNK         0.0784 
     96 H96       -73.2431   26.1229  -74.9912 H         1 UNK         0.3213 
     97 H97       -72.8119   22.6158  -75.5983 H         1 UNK         0.0855 
     98 H98       -73.0333   22.9747  -73.1393 H         1 UNK         0.0814 
     99 H99       -74.5883   22.6138  -73.8688 H         1 UNK         0.0814 
    100 H100      -74.1893   24.2698  -73.4109 H         1 UNK         0.0814 
    101 H101      -75.0833   24.3698  -75.7504 H         1 UNK         0.3105 
    102 H102      -74.8634   25.0894  -79.2066 H         1 UNK         0.0547 
    103 H103      -76.5386   22.8979  -77.8794 H         1 UNK         0.0837 
    104 H104      -75.5791   22.7272  -79.3399 H         1 UNK         0.0837 
    105 H105      -76.9857   23.7770  -79.3474 H         1 UNK         0.0837 
    106 H106      -76.9702   25.2960  -77.2169 H         1 UNK         0.3020 
    107 H107      -76.7769   27.3644  -75.6402 H         1 UNK         0.1245 
    108 H108      -76.1129   29.6521  -77.5571 H         1 UNK         0.0781 
    109 H109      -75.3704   29.3313  -76.0138 H         1 UNK         0.0781 
    110 H110      -77.4045   31.5019  -73.6738 H         1 UNK         0.0836 
    111 H111      -75.8222   31.2223  -74.3575 H         1 UNK         0.0836 
    112 H112      -78.4816   28.5087  -77.6056 H         1 UNK         0.3022 
    113 H113      -80.5152   27.8902  -77.8865 H         1 UNK         0.0747 
    114 H114      -81.8544   26.1072  -78.9151 H         1 UNK         0.0793 
    115 H115      -80.1728   25.8576  -79.3593 H         1 UNK         0.0793 
    116 H116      -80.9093   24.8583  -78.1118 H         1 UNK         0.0793 
    117 H117      -81.9881   26.0250  -76.2818 H         1 UNK         0.3047 
    118 H118      -81.8948   27.8157  -73.2270 H         1 UNK         0.0822 
    119 H119      -84.3680   27.8279  -73.4789 H         1 UNK         0.0807 
    120 H120      -84.2113   27.5857  -75.2186 H         1 UNK         0.0807 
    121 H121      -83.6204   29.0632  -74.4784 H         1 UNK         0.0807 
    122 H122      -81.9644   25.6500  -72.9123 H         1 UNK         0.2946 
    123 H123      -83.0759   23.6085  -72.7693 H         1 UNK         0.1144 
    124 H124      -84.9275   22.9117  -74.3061 H         1 UNK         0.0793 
    125 H125      -83.8643   21.5660  -73.9279 H         1 UNK         0.0793 
    126 H126      -83.7524   22.3655  -75.4947 H         1 UNK         0.0793 
    127 H127      -81.4226   22.3434  -74.8302 H         1 UNK         0.2896 
@<TRIPOS>BOND
     1    1    2 1    
     2    1   67 1    
     3    1   68 1    
     4    1   69 1    
     5    2    3 2    
     6    2    4 am   BACKBONE|DICT|INTERRES
     7    4    5 1    
     8    4   70 1    
     9    5    6 1    
    10    5   65 1    
    11    5   71 1    
    12    6    7 1    
    13    6   72 1    
    14    6   73 1    
    15    7    8 1    
    16    8    9 1    
    17    8   74 1    
    18    8   75 1    
    19    9   10 ar   
    20    9   14 ar   
    21   10   11 ar   
    22   10   76 1    
    23   11   12 ar   
    24   11   48 1    
    25   12   13 ar   
    26   12   77 1    
    27   13   14 ar   
    28   13   15 1    
    29   14   78 1    
    30   15   16 1    
    31   15   79 1    
    32   15   80 1    
    33   16   17 1    
    34   17   18 1    
    35   17   81 1    
    36   17   82 1    
    37   18   19 1    
    38   18   22 1    
    39   18   83 1    
    40   19   20 am   BACKBONE|DICT|INTERRES
    41   19   21 2    
    42   20   84 1    
    43   20   85 1    
    44   22   23 am   BACKBONE|DICT|INTERRES
    45   22   86 1    
    46   23   24 2    
    47   23   25 1    
    48   25   26 1    
    49   25   27 1    
    50   25   87 1    
    51   26   88 1    
    52   26   89 1    
    53   26   90 1    
    54   27   28 am   BACKBONE|DICT|INTERRES
    55   27   91 1    
    56   28   29 2    
    57   28   30 1    
    58   30   31 1    
    59   30   32 1    
    60   30   92 1    
    61   31   93 1    
    62   31   94 1    
    63   31   95 1    
    64   32   33 am   BACKBONE|DICT|INTERRES
    65   32   96 1    
    66   33   34 2    
    67   33   35 1    
    68   35   36 1    
    69   35   37 1    
    70   35   97 1    
    71   36   98 1    
    72   36   99 1    
    73   36  100 1    
    74   37   38 am   BACKBONE|DICT|INTERRES
    75   37  101 1    
    76   38   39 2    
    77   38   40 1    
    78   40   41 1    
    79   40   42 1    
    80   40  102 1    
    81   41  103 1    
    82   41  104 1    
    83   41  105 1    
    84   42   43 am   BACKBONE|DICT|INTERRES
    85   42  106 1    
    86   43   44 2    
    87   43   45 1    
    88   45   46 1    
    89   45   49 1    
    90   45  107 1    
    91   46   47 1    
    92   46  108 1    
    93   46  109 1    
    94   47   48 1    
    95   48  110 1    
    96   48  111 1    
    97   49   50 am   BACKBONE|DICT|INTERRES
    98   49  112 1    
    99   50   51 2    
   100   50   52 1    
   101   52   53 1    
   102   52   54 1    
   103   52  113 1    
   104   53  114 1    
   105   53  115 1    
   106   53  116 1    
   107   54   55 am   BACKBONE|DICT|INTERRES
   108   54  117 1    
   109   55   56 2    
   110   55   57 1    
   111   57   58 1    
   112   57   59 1    
   113   57  118 1    
   114   58  119 1    
   115   58  120 1    
   116   58  121 1    
   117   59   60 am   BACKBONE|DICT|INTERRES
   118   59  122 1    
   119   60   61 2    
   120   60   62 1    
   121   62   63 1    
   122   62   64 1    
   123   62  123 1    
   124   63  124 1    
   125   63  125 1    
   126   63  126 1    
   127   64   65 am   BACKBONE|DICT|INTERRES
   128   64  127 1    
   129   65   66 2    
@<TRIPOS>SUBSTRUCTURE
     1 UNK         1 GROUP             0       ****    0 ROOT    
