@<TRIPOS>MOLECULE
3R135
127   129    1
SMALL
USER_CHARGES


@<TRIPOS>ATOM
      1 CA        -77.5769   27.3978  -71.3530 C.3       0 UNK        -0.1998 
      2 C         -79.0815   27.1863  -71.3299 C.2       0 UNK         0.4909 
      3 O         -79.5898   26.5232  -70.4247 O.2       0 UNK        -0.5240 
      4 N         -79.8040   27.7334  -72.3160 N.am      1 UNK        -0.4739 
      5 CA        -81.2691   27.6844  -72.4258 C.3       1 UNK         0.0864 
      6 C6        -81.8433   28.8692  -73.2483 C.3       11 UNK        -0.0881 
      7 S7        -81.3817   30.5054  -72.5799 S.3       11 UNK        -0.2682 
      8 C8        -80.4689   31.2441  -73.9731 C.3       11 UNK         0.0289 
      9 C9        -79.0749   30.6519  -74.1133 C.ar      11 UNK        -0.0687 
     10 C10       -78.8475   29.5710  -74.9695 C.ar      11 UNK        -0.0823 
     11 C11       -77.5742   29.0062  -75.0771 C.ar      11 UNK        -0.0830 
     12 C12       -76.5126   29.5542  -74.3522 C.ar      11 UNK        -0.1021 
     13 C13       -76.7258   30.6455  -73.5042 C.ar      11 UNK        -0.0753 
     14 C14       -78.0089   31.1869  -73.3844 C.ar      11 UNK        -0.0933 
     15 C15       -75.5717   31.2351  -72.7125 C.3       11 UNK         0.0166 
     16 S16       -75.4524   30.4619  -71.0718 S.3       11 UNK        -0.2615 
     17 C17       -73.9995   31.3142  -70.3611 C.3       11 UNK        -0.0865 
     18 CA        -72.6759   31.1107  -71.1504 C.3       10 UNK         0.0862 
     19 C         -71.4743   31.7667  -70.4096 C.2       10 UNK         0.5551 
     20 N         -70.4335   31.0284  -70.0441 N.am      10 UNK        -0.7319 
     21 O         -71.4869   32.9711  -70.1671 O.2       10 UNK        -0.5018 
     22 N         -72.4786   29.7029  -71.5349 N.am      10 UNK        -0.4509 
     23 C         -71.7600   29.2889  -72.5841 C.2       10 UNK         0.4899 
     24 O         -71.1052   30.0469  -73.3037 O.2       10 UNK        -0.4839 
     25 CA        -71.7483   27.7698  -72.8544 C.3       9 UNK         0.0222 
     26 CB        -73.0635   27.0606  -72.4490 C.3       9 UNK        -0.1966 
     27 N         -71.3834   27.4624  -74.2435 N.am      9 UNK        -0.4218 
     28 C         -72.0894   27.7299  -75.3529 C.2       9 UNK         0.5020 
     29 O         -73.2188   28.2267  -75.3500 O.2       9 UNK        -0.5274 
     30 CA        -71.4011   27.3965  -76.6903 C.3       8 UNK         0.0270 
     31 CB        -70.6010   26.0781  -76.6387 C.3       8 UNK        -0.1976 
     32 N         -72.4038   27.2837  -77.7479 N.am      8 UNK        -0.4313 
     33 C         -72.5310   28.0998  -78.8020 C.2       8 UNK         0.5041 
     34 O         -71.7790   29.0526  -79.0168 O.2       8 UNK        -0.5577 
     35 CA        -73.6664   27.8028  -79.8032 C.3       7 UNK         0.0284 
     36 CB        -73.1862   27.9354  -81.2608 C.3       7 UNK        -0.1958 
     37 N         -74.2211   26.4601  -79.6126 N.am      7 UNK        -0.4454 
     38 C         -75.4731   26.1842  -79.2297 C.2       7 UNK         0.5089 
     39 O         -76.3463   27.0370  -79.0663 O.2       7 UNK        -0.5125 
     40 CA        -75.8130   24.7059  -78.9510 C.3       6 UNK         0.0408 
     41 CB        -74.7976   23.6957  -79.5322 C.3       6 UNK        -0.1791 
     42 N         -76.0106   24.4672  -77.5181 N.am      6 UNK        -0.4762 
     43 C         -75.1373   24.7217  -76.5279 C.2       6 UNK         0.5007 
     44 O         -73.9985   25.1480  -76.7187 O.2       6 UNK        -0.5032 
     45 CA        -75.6021   24.4599  -75.0780 C.3       5 UNK         0.0783 
     46 C46       -76.1334   25.7576  -74.4172 C.3       11 UNK        -0.0857 
     47 S47       -77.7753   26.2680  -75.0501 S.3       11 UNK        -0.2512 
     48 C48       -77.3643   27.7888  -75.9603 C.3       11 UNK         0.0225 
     49 N         -76.5903   23.3860  -74.9774 N.am      5 UNK        -0.4615 
     50 C         -76.4154   22.1041  -75.3145 C.2       4 UNK         0.5053 
     51 O         -75.3247   21.6156  -75.6097 O.2       4 UNK        -0.5105 
     52 CA        -77.6782   21.2216  -75.3484 C.3       4 UNK         0.0263 
     53 CB        -77.7053   20.2774  -74.1357 C.3       4 UNK        -0.1981 
     54 N         -78.9450   21.9656  -75.3965 N.am      4 UNK        -0.4224 
     55 C         -79.3474   22.8083  -76.3569 C.2       3 UNK         0.4895 
     56 O         -78.6602   23.0935  -77.3381 O.2       3 UNK        -0.5091 
     57 CA        -80.7323   23.4677  -76.2026 C.3       3 UNK         0.0250 
     58 CB        -81.8226   22.5835  -76.8373 C.3       3 UNK        -0.1996 
     59 N         -81.1183   23.8795  -74.8408 N.am      3 UNK        -0.4254 
     60 C         -81.3226   23.1358  -73.7439 C.2       2 UNK         0.5004 
     61 O         -81.1151   21.9217  -73.7047 O.2       2 UNK        -0.5226 
     62 CA        -81.8504   23.8511  -72.4788 C.3       2 UNK         0.0269 
     63 CB        -81.5548   23.0513  -71.1953 C.3       2 UNK        -0.1926 
     64 N         -81.3753   25.2271  -72.2820 N.am      2 UNK        -0.4687 
     65 C         -81.7681   26.3173  -72.9524 C.2       1 UNK         0.5165 
     66 O         -82.4903   26.2611  -73.9493 O.2       1 UNK        -0.5079 
     67 H67       -77.2443   27.8467  -72.2871 H         1 UNK         0.0900 
     68 H68       -77.0602   26.4471  -71.2287 H         1 UNK         0.0900 
     69 H69       -77.2813   28.0544  -70.5357 H         1 UNK         0.0900 
     70 H70       -79.3318   28.2627  -73.0370 H         1 UNK         0.2959 
     71 H71       -81.6792   27.7784  -71.4175 H         1 UNK         0.1079 
     72 H72       -81.5463   28.7926  -74.2941 H         1 UNK         0.0837 
     73 H73       -82.9343   28.8263  -73.2514 H         1 UNK         0.0837 
     74 H74       -81.0369   31.1194  -74.8964 H         1 UNK         0.0685 
     75 H75       -80.3935   32.3201  -73.8092 H         1 UNK         0.0685 
     76 H76       -79.6640   29.1528  -75.5416 H         1 UNK         0.1434 
     77 H77       -75.5243   29.1223  -74.4341 H         1 UNK         0.1329 
     78 H78       -78.1790   32.0218  -72.7182 H         1 UNK         0.1335 
     79 H79       -74.6422   31.0835  -73.2624 H         1 UNK         0.0680 
     80 H80       -75.6991   32.3131  -72.6014 H         1 UNK         0.0680 
     81 H81       -74.2315   32.3779  -70.2795 H         1 UNK         0.1032 
     82 H82       -73.8834   30.9557  -69.3365 H         1 UNK         0.1032 
     83 H83       -72.7690   31.6816  -72.0755 H         1 UNK         0.0461 
     84 H84       -70.4148   30.0417  -70.2450 H         1 UNK         0.3453 
     85 H85       -69.6591   31.4638  -69.5680 H         1 UNK         0.3453 
     86 H86       -72.9834   29.0227  -70.9867 H         1 UNK         0.2984 
     87 H87       -70.9475   27.3561  -72.2401 H         1 UNK         0.0554 
     88 H88       -73.9391   27.5622  -72.8631 H         1 UNK         0.0847 
     89 H89       -73.1847   27.0353  -71.3658 H         1 UNK         0.0847 
     90 H90       -73.0795   26.0263  -72.7925 H         1 UNK         0.0847 
     91 H91       -70.4546   27.0853  -74.3670 H         1 UNK         0.3141 
     92 H92       -70.7089   28.2129  -76.9052 H         1 UNK         0.0743 
     93 H93       -71.2174   25.2458  -76.2955 H         1 UNK         0.0784 
     94 H94       -70.2125   25.8164  -77.6232 H         1 UNK         0.0784 
     95 H95       -69.7408   26.1524  -75.9731 H         1 UNK         0.0784 
     96 H96       -73.1144   26.5750  -77.5759 H         1 UNK         0.3213 
     97 H97       -74.4336   28.5601  -79.6288 H         1 UNK         0.0855 
     98 H98       -72.3734   27.2427  -81.4820 H         1 UNK         0.0814 
     99 H99       -72.8222   28.9430  -81.4660 H         1 UNK         0.0814 
    100 H100      -73.9960   27.7385  -81.9635 H         1 UNK         0.0814 
    101 H101      -73.5690   25.6926  -79.6957 H         1 UNK         0.3105 
    102 H102      -76.7751   24.5167  -79.4293 H         1 UNK         0.0547 
    103 H103      -74.6647   23.8426  -80.6049 H         1 UNK         0.0837 
    104 H104      -73.8172   23.7663  -79.0601 H         1 UNK         0.0837 
    105 H105      -75.1496   22.6733  -79.3940 H         1 UNK         0.0837 
    106 H106      -76.9302   24.1159  -77.2660 H         1 UNK         0.3020 
    107 H107      -74.7160   24.1366  -74.5272 H         1 UNK         0.1245 
    108 H108      -75.4143   26.5716  -74.5238 H         1 UNK         0.0781 
    109 H109      -76.2295   25.5961  -73.3436 H         1 UNK         0.0781 
    110 H110      -78.0043   27.8553  -76.8414 H         1 UNK         0.0836 
    111 H111      -76.3403   27.7506  -76.3362 H         1 UNK         0.0836 
    112 H112      -77.5275   23.6873  -74.7537 H         1 UNK         0.3022 
    113 H113      -77.6206   20.6172  -76.2557 H         1 UNK         0.0747 
    114 H114      -78.5425   19.5815  -74.1935 H         1 UNK         0.0793 
    115 H115      -76.7932   19.6813  -74.0813 H         1 UNK         0.0793 
    116 H116      -77.7924   20.8292  -73.1987 H         1 UNK         0.0793 
    117 H117      -79.6119   21.7906  -74.6454 H         1 UNK         0.3047 
    118 H118      -80.6898   24.3940  -76.7781 H         1 UNK         0.0822 
    119 H119      -82.7902   23.0854  -76.8354 H         1 UNK         0.0807 
    120 H120      -81.9357   21.6351  -76.3110 H         1 UNK         0.0807 
    121 H121      -81.5811   22.3511  -77.8755 H         1 UNK         0.0807 
    122 H122      -81.3505   24.8631  -74.7444 H         1 UNK         0.2946 
    123 H123      -82.9357   23.8924  -72.5958 H         1 UNK         0.1144 
    124 H124      -80.4822   22.9432  -71.0293 H         1 UNK         0.0793 
    125 H125      -81.9818   22.0486  -71.2443 H         1 UNK         0.0793 
    126 H126      -81.9828   23.5357  -70.3174 H         1 UNK         0.0793 
    127 H127      -80.7394   25.3818  -71.5042 H         1 UNK         0.2896 
@<TRIPOS>BOND
     1    1    2 1    
     2    1   67 1    
     3    1   68 1    
     4    1   69 1    
     5    2    3 2    
     6    2    4 am   BACKBONE|DICT|INTERRES
     7    4    5 1    
     8    4   70 1    
     9    5    6 1    
    10    5   65 1    
    11    5   71 1    
    12    6    7 1    
    13    6   72 1    
    14    6   73 1    
    15    7    8 1    
    16    8    9 1    
    17    8   74 1    
    18    8   75 1    
    19    9   10 ar   
    20    9   14 ar   
    21   10   11 ar   
    22   10   76 1    
    23   11   12 ar   
    24   11   48 1    
    25   12   13 ar   
    26   12   77 1    
    27   13   14 ar   
    28   13   15 1    
    29   14   78 1    
    30   15   16 1    
    31   15   79 1    
    32   15   80 1    
    33   16   17 1    
    34   17   18 1    
    35   17   81 1    
    36   17   82 1    
    37   18   19 1    
    38   18   22 1    
    39   18   83 1    
    40   19   20 am   BACKBONE|DICT|INTERRES
    41   19   21 2    
    42   20   84 1    
    43   20   85 1    
    44   22   23 am   BACKBONE|DICT|INTERRES
    45   22   86 1    
    46   23   24 2    
    47   23   25 1    
    48   25   26 1    
    49   25   27 1    
    50   25   87 1    
    51   26   88 1    
    52   26   89 1    
    53   26   90 1    
    54   27   28 am   BACKBONE|DICT|INTERRES
    55   27   91 1    
    56   28   29 2    
    57   28   30 1    
    58   30   31 1    
    59   30   32 1    
    60   30   92 1    
    61   31   93 1    
    62   31   94 1    
    63   31   95 1    
    64   32   33 am   BACKBONE|DICT|INTERRES
    65   32   96 1    
    66   33   34 2    
    67   33   35 1    
    68   35   36 1    
    69   35   37 1    
    70   35   97 1    
    71   36   98 1    
    72   36   99 1    
    73   36  100 1    
    74   37   38 am   BACKBONE|DICT|INTERRES
    75   37  101 1    
    76   38   39 2    
    77   38   40 1    
    78   40   41 1    
    79   40   42 1    
    80   40  102 1    
    81   41  103 1    
    82   41  104 1    
    83   41  105 1    
    84   42   43 am   BACKBONE|DICT|INTERRES
    85   42  106 1    
    86   43   44 2    
    87   43   45 1    
    88   45   46 1    
    89   45   49 1    
    90   45  107 1    
    91   46   47 1    
    92   46  108 1    
    93   46  109 1    
    94   47   48 1    
    95   48  110 1    
    96   48  111 1    
    97   49   50 am   BACKBONE|DICT|INTERRES
    98   49  112 1    
    99   50   51 2    
   100   50   52 1    
   101   52   53 1    
   102   52   54 1    
   103   52  113 1    
   104   53  114 1    
   105   53  115 1    
   106   53  116 1    
   107   54   55 am   BACKBONE|DICT|INTERRES
   108   54  117 1    
   109   55   56 2    
   110   55   57 1    
   111   57   58 1    
   112   57   59 1    
   113   57  118 1    
   114   58  119 1    
   115   58  120 1    
   116   58  121 1    
   117   59   60 am   BACKBONE|DICT|INTERRES
   118   59  122 1    
   119   60   61 2    
   120   60   62 1    
   121   62   63 1    
   122   62   64 1    
   123   62  123 1    
   124   63  124 1    
   125   63  125 1    
   126   63  126 1    
   127   64   65 am   BACKBONE|DICT|INTERRES
   128   64  127 1    
   129   65   66 2    
@<TRIPOS>SUBSTRUCTURE
     1 UNK         1 GROUP             0       ****    0 ROOT    
