@<TRIPOS>MOLECULE
3R135
127   129    1
SMALL
USER_CHARGES


@<TRIPOS>ATOM
      1 CA        -83.5524   26.2397  -76.5762 C.3       0 UNK        -0.1998 
      2 C         -82.4750   27.0975  -75.9314 C.2       0 UNK         0.4909 
      3 O         -81.6779   27.7130  -76.6403 O.2       0 UNK        -0.5240 
      4 N         -82.4331   27.1388  -74.5921 N.am      1 UNK        -0.4739 
      5 CA        -81.4322   27.8766  -73.8119 C.3       1 UNK         0.0864 
      6 C6        -81.7877   27.9081  -72.3026 C.3       11 UNK        -0.0881 
      7 S7        -81.3334   29.4957  -71.5287 S.3       11 UNK        -0.2682 
      8 C8        -80.2121   28.9759  -70.1922 C.3       11 UNK         0.0289 
      9 C9        -78.8161   28.6530  -70.7039 C.ar      11 UNK        -0.0687 
     10 C10       -78.3595   27.3327  -70.7388 C.ar      11 UNK        -0.0823 
     11 C11       -77.0624   27.0417  -71.1729 C.ar      11 UNK        -0.0830 
     12 C12       -76.2265   28.0818  -71.5937 C.ar      11 UNK        -0.1021 
     13 C13       -76.6725   29.4080  -71.5626 C.ar      11 UNK        -0.0753 
     14 C14       -77.9669   29.6851  -71.1129 C.ar      11 UNK        -0.0933 
     15 C15       -75.7722   30.5432  -72.0320 C.3       11 UNK         0.0166 
     16 S16       -74.2272   30.6421  -71.0737 S.3       11 UNK        -0.2615 
     17 C17       -73.4937   32.1843  -71.7299 C.3       11 UNK        -0.0865 
     18 CA        -72.2848   32.0430  -72.7057 C.3       10 UNK         0.0862 
     19 C         -71.0819   31.2069  -72.1648 C.2       10 UNK         0.5551 
     20 N         -70.3228   30.5125  -73.0053 N.am      10 UNK        -0.7319 
     21 O         -70.7924   31.2359  -70.9709 O.2       10 UNK        -0.5018 
     22 N         -72.6771   31.8044  -74.1064 N.am      10 UNK        -0.4509 
     23 C         -73.0681   30.6521  -74.6654 C.2       10 UNK         0.4899 
     24 O         -73.2333   29.5999  -74.0492 O.2       10 UNK        -0.4839 
     25 CA        -73.2787   30.6504  -76.1940 C.3       9 UNK         0.0222 
     26 CB        -72.9064   31.9739  -76.9022 C.3       9 UNK        -0.1966 
     27 N         -72.5749   29.5197  -76.8071 N.am      9 UNK        -0.4218 
     28 C         -71.2662   29.2380  -76.7227 C.2       9 UNK         0.5020 
     29 O         -70.4317   29.9762  -76.1924 O.2       9 UNK        -0.5274 
     30 CA        -70.8445   27.8600  -77.2688 C.3       8 UNK         0.0270 
     31 CB        -69.3150   27.6851  -77.3242 C.3       8 UNK        -0.1976 
     32 N         -71.4192   26.7895  -76.4488 N.am      8 UNK        -0.4313 
     33 C         -72.6955   26.3882  -76.4969 C.2       8 UNK         0.5041 
     34 O         -73.5166   26.8289  -77.3073 O.2       8 UNK        -0.5577 
     35 CA        -73.1345   25.3930  -75.4149 C.3       7 UNK         0.0284 
     36 CB        -73.5413   26.1464  -74.1377 C.3       7 UNK        -0.1958 
     37 N         -74.2687   24.5963  -75.8742 N.am      7 UNK        -0.4454 
     38 C         -74.1752   23.4774  -76.6007 C.2       7 UNK         0.5089 
     39 O         -73.1061   22.9542  -76.9225 O.2       7 UNK        -0.5125 
     40 CA        -75.5149   22.8372  -77.0140 C.3       6 UNK         0.0408 
     41 CB        -75.3562   21.4618  -77.6953 C.3       6 UNK        -0.1791 
     42 N         -76.4583   22.7725  -75.8916 N.am      6 UNK        -0.4762 
     43 C         -76.3292   22.0859  -74.7440 C.2       6 UNK         0.5007 
     44 O         -75.3987   21.3153  -74.5041 O.2       6 UNK        -0.5032 
     45 CA        -77.4239   22.2919  -73.6724 C.3       5 UNK         0.0783 
     46 C46       -76.8984   23.1091  -72.4644 C.3       11 UNK        -0.0857 
     47 S47       -76.6911   24.8819  -72.8351 S.3       11 UNK        -0.2512 
     48 C48       -76.5676   25.6037  -71.1749 C.3       11 UNK         0.0225 
     49 N         -78.6507   22.8733  -74.2307 N.am      5 UNK        -0.4615 
     50 C         -79.5819   22.1839  -74.9011 C.2       4 UNK         0.5053 
     51 O         -79.5617   20.9615  -75.0442 O.2       4 UNK        -0.5105 
     52 CA        -80.7059   23.0053  -75.5477 C.3       4 UNK         0.0263 
     53 CB        -81.7740   23.3902  -74.5109 C.3       4 UNK        -0.1981 
     54 N         -80.1796   24.2033  -76.2102 N.am      4 UNK        -0.4224 
     55 C         -79.5698   24.1823  -77.4070 C.2       3 UNK         0.4895 
     56 O         -79.4261   23.1587  -78.0754 O.2       3 UNK        -0.5091 
     57 CA        -79.0245   25.5058  -77.9724 C.3       3 UNK         0.0250 
     58 CB        -79.9461   26.0382  -79.0817 C.3       3 UNK        -0.1996 
     59 N         -78.8401   26.5397  -76.9528 N.am      3 UNK        -0.4254 
     60 C         -77.7905   26.5887  -76.1185 C.2       2 UNK         0.5004 
     61 O         -76.8636   25.7811  -76.1483 O.2       2 UNK        -0.5226 
     62 CA        -77.7838   27.7007  -75.0524 C.3       2 UNK         0.0269 
     63 CB        -77.0071   28.9230  -75.5643 C.3       2 UNK        -0.1926 
     64 N         -79.1218   28.1143  -74.6162 N.am      2 UNK        -0.4687 
     65 C         -80.0295   27.2928  -74.0697 C.2       1 UNK         0.5165 
     66 O         -79.8274   26.0961  -73.8492 O.2       1 UNK        -0.5079 
     67 H67       -84.2291   25.8108  -75.8375 H         1 UNK         0.0900 
     68 H68       -84.1431   26.8387  -77.2687 H         1 UNK         0.0900 
     69 H69       -83.0956   25.4235  -77.1356 H         1 UNK         0.0900 
     70 H70       -83.0957   26.5962  -74.0571 H         1 UNK         0.2959 
     71 H71       -81.4546   28.8997  -74.1948 H         1 UNK         0.1079 
     72 H72       -81.3491   27.0680  -71.7600 H         1 UNK         0.0837 
     73 H73       -82.8656   27.8073  -72.1662 H         1 UNK         0.0837 
     74 H74       -80.6434   28.1275  -69.6584 H         1 UNK         0.0685 
     75 H75       -80.1418   29.7853  -69.4640 H         1 UNK         0.0685 
     76 H76       -79.0110   26.5301  -70.4212 H         1 UNK         0.1434 
     77 H77       -75.2264   27.8625  -71.9435 H         1 UNK         0.1329 
     78 H78       -78.3217   30.7063  -71.0839 H         1 UNK         0.1335 
     79 H79       -75.5391   30.3993  -73.0852 H         1 UNK         0.0680 
     80 H80       -76.2949   31.4981  -71.9590 H         1 UNK         0.0680 
     81 H81       -73.1739   32.7642  -70.8625 H         1 UNK         0.1032 
     82 H82       -74.2717   32.7905  -72.1956 H         1 UNK         0.1032 
     83 H83       -71.8576   33.0452  -72.7586 H         1 UNK         0.0461 
     84 H84       -69.5368   29.9958  -72.6451 H         1 UNK         0.3453 
     85 H85       -70.5370   30.4806  -73.9934 H         1 UNK         0.3453 
     86 H86       -72.5427   32.5925  -74.7226 H         1 UNK         0.2984 
     87 H87       -74.3429   30.4760  -76.3559 H         1 UNK         0.0554 
     88 H88       -73.5132   32.8043  -76.5388 H         1 UNK         0.0847 
     89 H89       -73.0838   31.9029  -77.9754 H         1 UNK         0.0847 
     90 H90       -71.8571   32.2372  -76.7628 H         1 UNK         0.0847 
     91 H91       -73.1649   28.7749  -77.1707 H         1 UNK         0.3141 
     92 H92       -71.2274   27.7756  -78.2883 H         1 UNK         0.0743 
     93 H93       -68.8629   27.7428  -76.3331 H         1 UNK         0.0784 
     94 H94       -69.0413   26.7253  -77.7626 H         1 UNK         0.0784 
     95 H95       -68.8567   28.4625  -77.9370 H         1 UNK         0.0784 
     96 H96       -70.8221   26.4142  -75.7254 H         1 UNK         0.3213 
     97 H97       -72.2984   24.7303  -75.1808 H         1 UNK         0.0855 
     98 H98       -74.4072   26.7888  -74.3068 H         1 UNK         0.0814 
     99 H99       -72.7326   26.7838  -73.7774 H         1 UNK         0.0814 
    100 H100      -73.7878   25.4544  -73.3328 H         1 UNK         0.0814 
    101 H101      -75.1927   25.0105  -75.7627 H         1 UNK         0.3105 
    102 H102      -75.9621   23.5131  -77.7444 H         1 UNK         0.0547 
    103 H103      -76.3230   21.0489  -77.9829 H         1 UNK         0.0837 
    104 H104      -74.8607   20.7390  -77.0468 H         1 UNK         0.0837 
    105 H105      -74.7566   21.5453  -78.6024 H         1 UNK         0.0837 
    106 H106      -77.2276   23.4259  -75.9456 H         1 UNK         0.3020 
    107 H107      -77.6639   21.2924  -73.3016 H         1 UNK         0.1245 
    108 H108      -75.9522   22.7077  -72.0959 H         1 UNK         0.0781 
    109 H109      -77.6058   23.0106  -71.6399 H         1 UNK         0.0781 
    110 H110      -75.5303   25.5612  -70.8398 H         1 UNK         0.0836 
    111 H111      -77.1449   25.0107  -70.4642 H         1 UNK         0.0836 
    112 H112      -78.7532   23.8753  -74.1245 H         1 UNK         0.3022 
    113 H113      -81.1880   22.3761  -76.2995 H         1 UNK         0.0747 
    114 H114      -82.5996   23.9295  -74.9728 H         1 UNK         0.0793 
    115 H115      -82.1952   22.4997  -74.0423 H         1 UNK         0.0793 
    116 H116      -81.3687   24.0118  -73.7126 H         1 UNK         0.0793 
    117 H117      -80.1993   25.0654  -75.6782 H         1 UNK         0.3047 
    118 H118      -78.0532   25.2891  -78.4230 H         1 UNK         0.0822 
    119 H119      -79.5607   26.9641  -79.5089 H         1 UNK         0.0807 
    120 H120      -80.9547   26.2309  -78.7162 H         1 UNK         0.0807 
    121 H121      -80.0303   25.3174  -79.8962 H         1 UNK         0.0807 
    122 H122      -79.5901   27.2145  -76.8456 H         1 UNK         0.2946 
    123 H123      -77.2634   27.3121  -74.1770 H         1 UNK         0.1144 
    124 H124      -76.9657   29.7106  -74.8133 H         1 UNK         0.0793 
    125 H125      -77.4576   29.3410  -76.4653 H         1 UNK         0.0793 
    126 H126      -75.9787   28.6503  -75.8067 H         1 UNK         0.0793 
    127 H127      -79.3747   29.0766  -74.7879 H         1 UNK         0.2896 
@<TRIPOS>BOND
     1    1    2 1    
     2    1   67 1    
     3    1   68 1    
     4    1   69 1    
     5    2    3 2    
     6    2    4 am   BACKBONE|DICT|INTERRES
     7    4    5 1    
     8    4   70 1    
     9    5    6 1    
    10    5   65 1    
    11    5   71 1    
    12    6    7 1    
    13    6   72 1    
    14    6   73 1    
    15    7    8 1    
    16    8    9 1    
    17    8   74 1    
    18    8   75 1    
    19    9   10 ar   
    20    9   14 ar   
    21   10   11 ar   
    22   10   76 1    
    23   11   12 ar   
    24   11   48 1    
    25   12   13 ar   
    26   12   77 1    
    27   13   14 ar   
    28   13   15 1    
    29   14   78 1    
    30   15   16 1    
    31   15   79 1    
    32   15   80 1    
    33   16   17 1    
    34   17   18 1    
    35   17   81 1    
    36   17   82 1    
    37   18   19 1    
    38   18   22 1    
    39   18   83 1    
    40   19   20 am   BACKBONE|DICT|INTERRES
    41   19   21 2    
    42   20   84 1    
    43   20   85 1    
    44   22   23 am   BACKBONE|DICT|INTERRES
    45   22   86 1    
    46   23   24 2    
    47   23   25 1    
    48   25   26 1    
    49   25   27 1    
    50   25   87 1    
    51   26   88 1    
    52   26   89 1    
    53   26   90 1    
    54   27   28 am   BACKBONE|DICT|INTERRES
    55   27   91 1    
    56   28   29 2    
    57   28   30 1    
    58   30   31 1    
    59   30   32 1    
    60   30   92 1    
    61   31   93 1    
    62   31   94 1    
    63   31   95 1    
    64   32   33 am   BACKBONE|DICT|INTERRES
    65   32   96 1    
    66   33   34 2    
    67   33   35 1    
    68   35   36 1    
    69   35   37 1    
    70   35   97 1    
    71   36   98 1    
    72   36   99 1    
    73   36  100 1    
    74   37   38 am   BACKBONE|DICT|INTERRES
    75   37  101 1    
    76   38   39 2    
    77   38   40 1    
    78   40   41 1    
    79   40   42 1    
    80   40  102 1    
    81   41  103 1    
    82   41  104 1    
    83   41  105 1    
    84   42   43 am   BACKBONE|DICT|INTERRES
    85   42  106 1    
    86   43   44 2    
    87   43   45 1    
    88   45   46 1    
    89   45   49 1    
    90   45  107 1    
    91   46   47 1    
    92   46  108 1    
    93   46  109 1    
    94   47   48 1    
    95   48  110 1    
    96   48  111 1    
    97   49   50 am   BACKBONE|DICT|INTERRES
    98   49  112 1    
    99   50   51 2    
   100   50   52 1    
   101   52   53 1    
   102   52   54 1    
   103   52  113 1    
   104   53  114 1    
   105   53  115 1    
   106   53  116 1    
   107   54   55 am   BACKBONE|DICT|INTERRES
   108   54  117 1    
   109   55   56 2    
   110   55   57 1    
   111   57   58 1    
   112   57   59 1    
   113   57  118 1    
   114   58  119 1    
   115   58  120 1    
   116   58  121 1    
   117   59   60 am   BACKBONE|DICT|INTERRES
   118   59  122 1    
   119   60   61 2    
   120   60   62 1    
   121   62   63 1    
   122   62   64 1    
   123   62  123 1    
   124   63  124 1    
   125   63  125 1    
   126   63  126 1    
   127   64   65 am   BACKBONE|DICT|INTERRES
   128   64  127 1    
   129   65   66 2    
@<TRIPOS>SUBSTRUCTURE
     1 UNK         1 GROUP             0       ****    0 ROOT    
