@<TRIPOS>MOLECULE
3R135
127   129    1
SMALL
USER_CHARGES


@<TRIPOS>ATOM
      1 CA        -81.3603   23.4173  -70.0369 C.3       0 UNK        -0.1998 
      2 C         -82.5146   24.2302  -70.6031 C.2       0 UNK         0.4909 
      3 O         -83.6753   23.8810  -70.3888 O.2       0 UNK        -0.5240 
      4 N         -82.2050   25.3090  -71.3333 N.am      1 UNK        -0.4739 
      5 CA        -83.1744   26.2241  -71.9529 C.3       1 UNK         0.0864 
      6 C6        -82.5986   27.6577  -72.0973 C.3       11 UNK        -0.0881 
      7 S7        -80.9818   27.7512  -72.9503 S.3       11 UNK        -0.2682 
      8 C8        -80.0488   28.7333  -71.7321 C.3       11 UNK         0.0289 
      9 C9        -78.6573   29.1125  -72.2187 C.ar      11 UNK        -0.0687 
     10 C10       -78.5061   29.9961  -73.2920 C.ar      11 UNK        -0.0823 
     11 C11       -77.2339   30.4061  -73.7041 C.ar      11 UNK        -0.0830 
     12 C12       -76.1086   29.9369  -73.0207 C.ar      11 UNK        -0.1021 
     13 C13       -76.2452   29.0386  -71.9583 C.ar      11 UNK        -0.0753 
     14 C14       -77.5212   28.6269  -71.5626 C.ar      11 UNK        -0.0933 
     15 C15       -75.0071   28.5283  -71.2395 C.3       11 UNK         0.0166 
     16 S16       -74.1626   27.2693  -72.2414 S.3       11 UNK        -0.2615 
     17 C17       -72.4253   27.4689  -71.7146 C.3       11 UNK        -0.0865 
     18 CA        -71.7387   28.7396  -72.2899 C.3       10 UNK         0.0862 
     19 C         -70.2414   28.8202  -71.8729 C.2       10 UNK         0.5551 
     20 N         -69.2930   28.9781  -72.7903 N.am      10 UNK        -0.7319 
     21 O         -69.9336   28.7546  -70.6851 O.2       10 UNK        -0.5018 
     22 N         -71.9508   28.8783  -73.7374 N.am      10 UNK        -0.4509 
     23 C         -72.1263   30.0429  -74.3750 C.2       10 UNK         0.4899 
     24 O         -72.2048   31.1287  -73.7980 O.2       10 UNK        -0.4839 
     25 CA        -72.2420   29.9945  -75.9127 C.3       9 UNK         0.0222 
     26 CB        -71.7586   31.2957  -76.5874 C.3       9 UNK        -0.1966 
     27 N         -71.6063   28.8208  -76.5256 N.am      9 UNK        -0.4218 
     28 C         -70.3114   28.4758  -76.4453 C.2       9 UNK         0.5020 
     29 O         -69.4647   29.1409  -75.8435 O.2       9 UNK        -0.5274 
     30 CA        -69.9087   27.1429  -77.1101 C.3       8 UNK         0.0270 
     31 CB        -68.4945   26.6812  -76.6987 C.3       8 UNK        -0.1976 
     32 N         -70.8706   26.0538  -76.8905 N.am      8 UNK        -0.4313 
     33 C         -71.3601   25.6105  -75.7231 C.2       8 UNK         0.5041 
     34 O         -71.1179   26.1355  -74.6353 O.2       8 UNK        -0.5577 
     35 CA        -72.2986   24.3893  -75.8010 C.3       7 UNK         0.0284 
     36 CB        -72.7109   23.8754  -74.4090 C.3       7 UNK        -0.1958 
     37 N         -73.5026   24.6903  -76.5798 N.am      7 UNK        -0.4454 
     38 C         -73.5562   24.7672  -77.9191 C.2       7 UNK         0.5089 
     39 O         -72.5953   24.5084  -78.6459 O.2       7 UNK        -0.5125 
     40 CA        -74.8671   25.2584  -78.5661 C.3       6 UNK         0.0408 
     41 CB        -75.6904   24.0653  -79.0742 C.3       6 UNK        -0.1791 
     42 N         -75.6964   26.0775  -77.6778 N.am      6 UNK        -0.4762 
     43 C         -75.3165   27.2421  -77.1249 C.2       6 UNK         0.5007 
     44 O         -74.2541   27.7997  -77.4035 O.2       6 UNK        -0.5032 
     45 CA        -76.2417   27.8604  -76.0481 C.3       5 UNK         0.0783 
     46 C46       -77.0061   29.0990  -76.5932 C.3       11 UNK        -0.0857 
     47 S47       -76.1124   30.6524  -76.2541 S.3       11 UNK        -0.2512 
     48 C48       -77.0797   31.3640  -74.8798 C.3       11 UNK         0.0225 
     49 N         -77.1628   26.8990  -75.4284 N.am      5 UNK        -0.4615 
     50 C         -76.8176   25.7698  -74.7927 C.2       4 UNK         0.5053 
     51 O         -75.6573   25.3889  -74.6522 O.2       4 UNK        -0.5105 
     52 CA        -77.9632   24.8653  -74.3085 C.3       4 UNK         0.0263 
     53 CB        -78.2586   25.1129  -72.8217 C.3       4 UNK        -0.1981 
     54 N         -79.1985   24.9896  -75.0960 N.am      4 UNK        -0.4224 
     55 C         -79.2987   24.6930  -76.4033 C.2       3 UNK         0.4895 
     56 O         -78.3346   24.3638  -77.0961 O.2       3 UNK        -0.5091 
     57 CA        -80.7015   24.7563  -77.0297 C.3       3 UNK         0.0250 
     58 CB        -80.7875   23.9878  -78.3671 C.3       3 UNK        -0.1996 
     59 N         -81.6932   24.2528  -76.0787 N.am      3 UNK        -0.4254 
     60 C         -83.0125   24.4709  -76.1347 C.2       2 UNK         0.5004 
     61 O         -83.5729   25.1163  -77.0211 O.2       2 UNK        -0.5226 
     62 CA        -83.8345   23.8927  -74.9741 C.3       2 UNK         0.0269 
     63 CB        -83.7278   22.3586  -74.9020 C.3       2 UNK        -0.1926 
     64 N         -83.4113   24.4826  -73.7023 N.am      2 UNK        -0.4687 
     65 C         -83.7761   25.7020  -73.2792 C.2       1 UNK         0.5165 
     66 O         -84.5717   26.4139  -73.8950 O.2       1 UNK        -0.5079 
     67 H67       -80.3940   23.8692  -70.2601 H         1 UNK         0.0900 
     68 H68       -81.3697   22.4104  -70.4535 H         1 UNK         0.0900 
     69 H69       -81.4535   23.3388  -68.9540 H         1 UNK         0.0900 
     70 H70       -81.2364   25.5552  -71.4806 H         1 UNK         0.2959 
     71 H71       -84.0293   26.3015  -71.2768 H         1 UNK         0.1079 
     72 H72       -83.3001   28.3171  -72.6122 H         1 UNK         0.0837 
     73 H73       -82.4984   28.0857  -71.0987 H         1 UNK         0.0837 
     74 H74       -80.6010   29.6479  -71.5106 H         1 UNK         0.0685 
     75 H75       -79.9902   28.1739  -70.7970 H         1 UNK         0.0685 
     76 H76       -79.3856   30.3682  -73.7999 H         1 UNK         0.1434 
     77 H77       -75.1217   30.2549  -73.3293 H         1 UNK         0.1329 
     78 H78       -77.6291   27.9417  -70.7330 H         1 UNK         0.1335 
     79 H79       -75.2636   28.1019  -70.2687 H         1 UNK         0.0680 
     80 H80       -74.3433   29.3696  -71.0411 H         1 UNK         0.0680 
     81 H81       -71.8834   26.5762  -72.0327 H         1 UNK         0.1032 
     82 H82       -72.3881   27.4714  -70.6237 H         1 UNK         0.1032 
     83 H83       -72.2049   29.5946  -71.7994 H         1 UNK         0.0461 
     84 H84       -68.3306   29.0338  -72.4989 H         1 UNK         0.3453 
     85 H85       -69.5248   29.0338  -73.7759 H         1 UNK         0.3453 
     86 H86       -71.8437   28.0204  -74.2696 H         1 UNK         0.2984 
     87 H87       -73.3060   29.8985  -76.1210 H         1 UNK         0.0554 
     88 H88       -71.8706   31.2460  -77.6703 H         1 UNK         0.0847 
     89 H89       -70.7110   31.5019  -76.3658 H         1 UNK         0.0847 
     90 H90       -72.3385   32.1533  -76.2443 H         1 UNK         0.0847 
     91 H91       -72.2504   28.1986  -77.0047 H         1 UNK         0.3141 
     92 H92       -69.8969   27.3324  -78.1844 H         1 UNK         0.0743 
     93 H93       -68.4276   26.5034  -75.6245 H         1 UNK         0.0784 
     94 H94       -68.2127   25.7604  -77.2092 H         1 UNK         0.0784 
     95 H95       -67.7456   27.4325  -76.9527 H         1 UNK         0.0784 
     96 H96       -71.1973   25.5729  -77.7249 H         1 UNK         0.3213 
     97 H97       -71.7493   23.5871  -76.2987 H         1 UNK         0.0855 
     98 H98       -73.2345   24.6409  -73.8349 H         1 UNK         0.0814 
     99 H99       -71.8362   23.5786  -73.8290 H         1 UNK         0.0814 
    100 H100      -73.3642   23.0060  -74.4818 H         1 UNK         0.0814 
    101 H101      -74.3229   24.9578  -76.0410 H         1 UNK         0.3105 
    102 H102      -74.5961   25.8768  -79.4241 H         1 UNK         0.0547 
    103 H103      -75.1152   23.4655  -79.7808 H         1 UNK         0.0837 
    104 H104      -75.9917   23.4077  -78.2576 H         1 UNK         0.0837 
    105 H105      -76.5936   24.3942  -79.5884 H         1 UNK         0.0837 
    106 H106      -76.5783   25.6694  -77.3874 H         1 UNK         0.3020 
    107 H107      -75.5799   28.1759  -75.2379 H         1 UNK         0.1245 
    108 H108      -77.9980   29.1767  -76.1457 H         1 UNK         0.0781 
    109 H109      -77.1889   29.0246  -77.6672 H         1 UNK         0.0781 
    110 H110      -78.0546   31.6721  -75.2610 H         1 UNK         0.0836 
    111 H111      -76.5855   32.2732  -74.5349 H         1 UNK         0.0836 
    112 H112      -78.1454   27.1162  -75.4951 H         1 UNK         0.3022 
    113 H113      -77.6181   23.8343  -74.4131 H         1 UNK         0.0747 
    114 H114      -79.0204   24.4306  -72.4456 H         1 UNK         0.0793 
    115 H115      -77.3616   24.9620  -72.2189 H         1 UNK         0.0793 
    116 H116      -78.5942   26.1329  -72.6438 H         1 UNK         0.0793 
    117 H117      -80.0176   25.3198  -74.6063 H         1 UNK         0.3047 
    118 H118      -80.9095   25.8109  -77.2219 H         1 UNK         0.0822 
    119 H119      -81.7719   24.0827  -78.8251 H         1 UNK         0.0807 
    120 H120      -80.5825   22.9254  -78.2312 H         1 UNK         0.0807 
    121 H121      -80.0648   24.3713  -79.0886 H         1 UNK         0.0807 
    122 H122      -81.3286   23.6915  -75.3219 H         1 UNK         0.2946 
    123 H123      -84.8825   24.1457  -75.1535 H         1 UNK         0.1144 
    124 H124      -84.0088   21.9040  -75.8531 H         1 UNK         0.0793 
    125 H125      -84.3980   21.9550  -74.1427 H         1 UNK         0.0793 
    126 H126      -82.7182   22.0222  -74.6646 H         1 UNK         0.0793 
    127 H127      -82.7779   23.9498  -73.1251 H         1 UNK         0.2896 
@<TRIPOS>BOND
     1    1    2 1    
     2    1   67 1    
     3    1   68 1    
     4    1   69 1    
     5    2    3 2    
     6    2    4 am   BACKBONE|DICT|INTERRES
     7    4    5 1    
     8    4   70 1    
     9    5    6 1    
    10    5   65 1    
    11    5   71 1    
    12    6    7 1    
    13    6   72 1    
    14    6   73 1    
    15    7    8 1    
    16    8    9 1    
    17    8   74 1    
    18    8   75 1    
    19    9   10 ar   
    20    9   14 ar   
    21   10   11 ar   
    22   10   76 1    
    23   11   12 ar   
    24   11   48 1    
    25   12   13 ar   
    26   12   77 1    
    27   13   14 ar   
    28   13   15 1    
    29   14   78 1    
    30   15   16 1    
    31   15   79 1    
    32   15   80 1    
    33   16   17 1    
    34   17   18 1    
    35   17   81 1    
    36   17   82 1    
    37   18   19 1    
    38   18   22 1    
    39   18   83 1    
    40   19   20 am   BACKBONE|DICT|INTERRES
    41   19   21 2    
    42   20   84 1    
    43   20   85 1    
    44   22   23 am   BACKBONE|DICT|INTERRES
    45   22   86 1    
    46   23   24 2    
    47   23   25 1    
    48   25   26 1    
    49   25   27 1    
    50   25   87 1    
    51   26   88 1    
    52   26   89 1    
    53   26   90 1    
    54   27   28 am   BACKBONE|DICT|INTERRES
    55   27   91 1    
    56   28   29 2    
    57   28   30 1    
    58   30   31 1    
    59   30   32 1    
    60   30   92 1    
    61   31   93 1    
    62   31   94 1    
    63   31   95 1    
    64   32   33 am   BACKBONE|DICT|INTERRES
    65   32   96 1    
    66   33   34 2    
    67   33   35 1    
    68   35   36 1    
    69   35   37 1    
    70   35   97 1    
    71   36   98 1    
    72   36   99 1    
    73   36  100 1    
    74   37   38 am   BACKBONE|DICT|INTERRES
    75   37  101 1    
    76   38   39 2    
    77   38   40 1    
    78   40   41 1    
    79   40   42 1    
    80   40  102 1    
    81   41  103 1    
    82   41  104 1    
    83   41  105 1    
    84   42   43 am   BACKBONE|DICT|INTERRES
    85   42  106 1    
    86   43   44 2    
    87   43   45 1    
    88   45   46 1    
    89   45   49 1    
    90   45  107 1    
    91   46   47 1    
    92   46  108 1    
    93   46  109 1    
    94   47   48 1    
    95   48  110 1    
    96   48  111 1    
    97   49   50 am   BACKBONE|DICT|INTERRES
    98   49  112 1    
    99   50   51 2    
   100   50   52 1    
   101   52   53 1    
   102   52   54 1    
   103   52  113 1    
   104   53  114 1    
   105   53  115 1    
   106   53  116 1    
   107   54   55 am   BACKBONE|DICT|INTERRES
   108   54  117 1    
   109   55   56 2    
   110   55   57 1    
   111   57   58 1    
   112   57   59 1    
   113   57  118 1    
   114   58  119 1    
   115   58  120 1    
   116   58  121 1    
   117   59   60 am   BACKBONE|DICT|INTERRES
   118   59  122 1    
   119   60   61 2    
   120   60   62 1    
   121   62   63 1    
   122   62   64 1    
   123   62  123 1    
   124   63  124 1    
   125   63  125 1    
   126   63  126 1    
   127   64   65 am   BACKBONE|DICT|INTERRES
   128   64  127 1    
   129   65   66 2    
@<TRIPOS>SUBSTRUCTURE
     1 UNK         1 GROUP             0       ****    0 ROOT    
