@<TRIPOS>MOLECULE
3R135
127   129    1
SMALL
USER_CHARGES


@<TRIPOS>ATOM
      1 CA        -84.3236   28.2899  -70.6078 C.3       0 UNK        -0.1998 
      2 C         -83.2702   27.8817  -71.6268 C.2       0 UNK         0.4909 
      3 O         -82.4286   27.0358  -71.3237 O.2       0 UNK        -0.5240 
      4 N         -83.3095   28.4890  -72.8217 N.am      1 UNK        -0.4739 
      5 CA        -82.4203   28.2322  -73.9653 C.3       1 UNK         0.0864 
      6 C6        -80.9400   28.6404  -73.7090 C.3       11 UNK        -0.0881 
      7 S7        -80.7609   30.4018  -73.2492 S.3       11 UNK        -0.2682 
      8 C8        -80.3890   30.3235  -71.4647 C.3       11 UNK         0.0289 
      9 C9        -78.9973   29.7700  -71.1993 C.ar      11 UNK        -0.0687 
     10 C10       -78.8276   28.4234  -70.8656 C.ar      11 UNK        -0.0823 
     11 C11       -77.5473   27.8895  -70.6945 C.ar      11 UNK        -0.0830 
     12 C12       -76.4335   28.7290  -70.8031 C.ar      11 UNK        -0.1021 
     13 C13       -76.5931   30.0862  -71.0986 C.ar      11 UNK        -0.0753 
     14 C14       -77.8771   30.6005  -71.3016 C.ar      11 UNK        -0.0933 
     15 C15       -75.3786   30.9963  -71.1917 C.3       11 UNK         0.0166 
     16 S16       -74.8355   31.2262  -72.9137 S.3       11 UNK        -0.2615 
     17 C17       -73.2800   32.1504  -72.6405 C.3       11 UNK        -0.0865 
     18 CA        -71.9933   31.3498  -72.9748 C.3       10 UNK         0.0862 
     19 C         -71.8119   30.1015  -72.0595 C.2       10 UNK         0.5551 
     20 N         -71.8927   28.8803  -72.5767 N.am      10 UNK        -0.7319 
     21 O         -71.5847   30.2502  -70.8614 O.2       10 UNK        -0.5018 
     22 N         -71.8866   31.0703  -74.4143 N.am      10 UNK        -0.4509 
     23 C         -70.7372   30.8000  -75.0439 C.2       10 UNK         0.4899 
     24 O         -69.6251   30.8682  -74.5166 O.2       10 UNK        -0.4839 
     25 CA        -70.8523   30.3313  -76.5042 C.3       9 UNK         0.0222 
     26 CB        -69.8582   31.0724  -77.4154 C.3       9 UNK        -0.1966 
     27 N         -70.6225   28.8876  -76.6020 N.am      9 UNK        -0.4218 
     28 C         -71.4318   27.9567  -76.0807 C.2       9 UNK         0.5020 
     29 O         -72.4804   28.2208  -75.4902 O.2       9 UNK        -0.5274 
     30 CA        -70.9852   26.4964  -76.2041 C.3       8 UNK         0.0270 
     31 CB        -70.5898   25.9325  -74.8290 C.3       8 UNK        -0.1976 
     32 N         -72.0948   25.7145  -76.7447 N.am      8 UNK        -0.4313 
     33 C         -72.0306   24.9555  -77.8481 C.2       8 UNK         0.5041 
     34 O         -70.9910   24.7651  -78.4821 O.2       8 UNK        -0.5577 
     35 CA        -73.3281   24.2893  -78.3536 C.3       7 UNK         0.0284 
     36 CB        -73.3718   22.8133  -77.9251 C.3       7 UNK        -0.1958 
     37 N         -74.5597   24.9442  -77.9115 N.am      7 UNK        -0.4454 
     38 C         -74.9123   26.2108  -78.1670 C.2       7 UNK         0.5089 
     39 O         -74.2896   26.9546  -78.9256 O.2       7 UNK        -0.5125 
     40 CA        -76.1510   26.7556  -77.4310 C.3       6 UNK         0.0408 
     41 CB        -77.3527   26.8217  -78.3853 C.3       6 UNK        -0.1791 
     42 N         -76.5377   26.0159  -76.2217 N.am      6 UNK        -0.4762 
     43 C         -75.7701   25.8130  -75.1377 C.2       6 UNK         0.5007 
     44 O         -74.5841   26.1276  -75.0631 O.2       6 UNK        -0.5032 
     45 CA        -76.4378   25.1044  -73.9493 C.3       5 UNK         0.0783 
     46 C46       -77.4532   26.0484  -73.2664 C.3       11 UNK        -0.0857 
     47 S47       -78.1450   25.3576  -71.7255 S.3       11 UNK        -0.2512 
     48 C48       -77.3611   26.3971  -70.4416 C.3       11 UNK         0.0225 
     49 N         -77.0387   23.8503  -74.4019 N.am      5 UNK        -0.4615 
     50 C         -76.3478   22.7258  -74.6321 C.2       4 UNK         0.5053 
     51 O         -75.1501   22.5935  -74.3816 O.2       4 UNK        -0.5105 
     52 CA        -77.1144   21.5525  -75.2677 C.3       4 UNK         0.0263 
     53 CB        -77.6918   20.6355  -74.1776 C.3       4 UNK        -0.1981 
     54 N         -78.1935   21.9840  -76.1597 N.am      4 UNK        -0.4224 
     55 C         -78.0179   22.6538  -77.3086 C.2       3 UNK         0.4895 
     56 O         -76.9166   22.9396  -77.7775 O.2       3 UNK        -0.5091 
     57 CA        -79.2929   23.1227  -78.0316 C.3       3 UNK         0.0250 
     58 CB        -79.7962   22.0356  -78.9945 C.3       3 UNK        -0.1996 
     59 N         -80.3752   23.5112  -77.1183 N.am      3 UNK        -0.4254 
     60 C         -80.3000   24.5082  -76.2258 C.2       2 UNK         0.5004 
     61 O         -79.2992   25.2114  -76.0606 O.2       2 UNK        -0.5226 
     62 CA        -81.5218   24.7148  -75.3277 C.3       2 UNK         0.0269 
     63 CB        -81.4910   23.7349  -74.1402 C.3       2 UNK        -0.1926 
     64 N         -81.5180   26.0870  -74.8267 N.am      2 UNK        -0.4687 
     65 C         -82.6077   26.7846  -74.4844 C.2       1 UNK         0.5165 
     66 O         -83.7509   26.3292  -74.5812 O.2       1 UNK        -0.5079 
     67 H67       -84.9942   29.0556  -70.9975 H         1 UNK         0.0900 
     68 H68       -84.9238   27.4262  -70.3230 H         1 UNK         0.0900 
     69 H69       -83.8447   28.6832  -69.7115 H         1 UNK         0.0900 
     70 H70       -84.0437   29.1592  -73.0017 H         1 UNK         0.2959 
     71 H71       -82.7898   28.8655  -74.7735 H         1 UNK         0.1079 
     72 H72       -80.3436   28.4992  -74.6120 H         1 UNK         0.0837 
     73 H73       -80.4918   28.0006  -72.9505 H         1 UNK         0.0837 
     74 H74       -80.4651   31.3285  -71.0472 H         1 UNK         0.0685 
     75 H75       -81.1445   29.7268  -70.9538 H         1 UNK         0.0685 
     76 H76       -79.6906   27.7756  -70.7835 H         1 UNK         0.1434 
     77 H77       -75.4384   28.3258  -70.6708 H         1 UNK         0.1329 
     78 H78       -78.0036   31.6448  -71.5530 H         1 UNK         0.1335 
     79 H79       -74.5573   30.5820  -70.6045 H         1 UNK         0.0680 
     80 H80       -75.6108   31.9683  -70.7537 H         1 UNK         0.0680 
     81 H81       -73.3145   33.0540  -73.2510 H         1 UNK         0.1032 
     82 H82       -73.2374   32.5075  -71.6097 H         1 UNK         0.1032 
     83 H83       -71.1589   32.0085  -72.7252 H         1 UNK         0.0461 
     84 H84       -72.1226   28.7504  -73.5562 H         1 UNK         0.3453 
     85 H85       -71.7714   28.0815  -71.9762 H         1 UNK         0.3453 
     86 H86       -72.7599   30.9193  -74.8994 H         1 UNK         0.2984 
     87 H87       -71.8608   30.5431  -76.8664 H         1 UNK         0.0554 
     88 H88       -70.0076   32.1514  -77.3566 H         1 UNK         0.0847 
     89 H89       -69.9863   30.7857  -78.4594 H         1 UNK         0.0847 
     90 H90       -68.8226   30.8726  -77.1371 H         1 UNK         0.0847 
     91 H91       -69.7602   28.5958  -77.0395 H         1 UNK         0.3141 
     92 H92       -70.1155   26.4488  -76.8626 H         1 UNK         0.0743 
     93 H93       -71.4279   25.9508  -74.1305 H         1 UNK         0.0784 
     94 H94       -70.2448   24.9016  -74.9097 H         1 UNK         0.0784 
     95 H95       -69.7805   26.5140  -74.3852 H         1 UNK         0.0784 
     96 H96       -72.9932   25.8704  -76.2908 H         1 UNK         0.3213 
     97 H97       -73.3093   24.3316  -79.4445 H         1 UNK         0.0855 
     98 H98       -73.4336   22.7112  -76.8405 H         1 UNK         0.0814 
     99 H99       -72.4770   22.2827  -78.2535 H         1 UNK         0.0814 
    100 H100      -74.2295   22.2988  -78.3591 H         1 UNK         0.0814 
    101 H101      -75.1868   24.3937  -77.3382 H         1 UNK         0.3105 
    102 H102      -75.9112   27.7728  -77.1153 H         1 UNK         0.0547 
    103 H103      -77.1290   27.4443  -79.2525 H         1 UNK         0.0837 
    104 H104      -77.6204   25.8330  -78.7562 H         1 UNK         0.0837 
    105 H105      -78.2294   27.2480  -77.8973 H         1 UNK         0.0837 
    106 H106      -77.5045   25.6973  -76.1874 H         1 UNK         0.3020 
    107 H107      -75.6519   24.8761  -73.2249 H         1 UNK         0.1245 
    108 H108      -78.2886   26.2737  -73.9294 H         1 UNK         0.0781 
    109 H109      -76.9806   27.0097  -73.0636 H         1 UNK         0.0781 
    110 H110      -76.3016   26.1422  -70.3882 H         1 UNK         0.0836 
    111 H111      -77.7883   26.1440  -69.4705 H         1 UNK         0.0836 
    112 H112      -78.0112   23.8945  -74.6703 H         1 UNK         0.3022 
    113 H113      -76.4007   20.9764  -75.8607 H         1 UNK         0.0747 
    114 H114      -78.1710   19.7568  -74.6098 H         1 UNK         0.0793 
    115 H115      -76.9045   20.2782  -73.5122 H         1 UNK         0.0793 
    116 H116      -78.4285   21.1530  -73.5616 H         1 UNK         0.0793 
    117 H117      -79.1375   21.7864  -75.8625 H         1 UNK         0.3047 
    118 H118      -79.0307   24.0012  -78.6227 H         1 UNK         0.0822 
    119 H119      -80.6427   22.3882  -79.5841 H         1 UNK         0.0807 
    120 H120      -80.1073   21.1349  -78.4636 H         1 UNK         0.0807 
    121 H121      -79.0138   21.7455  -79.6974 H         1 UNK         0.0807 
    122 H122      -81.2308   22.9776  -77.1825 H         1 UNK         0.2946 
    123 H123      -82.4204   24.5449  -75.9257 H         1 UNK         0.1144 
    124 H124      -82.3627   23.8640  -73.4982 H         1 UNK         0.0793 
    125 H125      -80.6021   23.8781  -73.5237 H         1 UNK         0.0793 
    126 H126      -81.4929   22.6985  -74.4799 H         1 UNK         0.0793 
    127 H127      -80.6023   26.5150  -74.7914 H         1 UNK         0.2896 
@<TRIPOS>BOND
     1    1    2 1    
     2    1   67 1    
     3    1   68 1    
     4    1   69 1    
     5    2    3 2    
     6    2    4 am   BACKBONE|DICT|INTERRES
     7    4    5 1    
     8    4   70 1    
     9    5    6 1    
    10    5   65 1    
    11    5   71 1    
    12    6    7 1    
    13    6   72 1    
    14    6   73 1    
    15    7    8 1    
    16    8    9 1    
    17    8   74 1    
    18    8   75 1    
    19    9   10 ar   
    20    9   14 ar   
    21   10   11 ar   
    22   10   76 1    
    23   11   12 ar   
    24   11   48 1    
    25   12   13 ar   
    26   12   77 1    
    27   13   14 ar   
    28   13   15 1    
    29   14   78 1    
    30   15   16 1    
    31   15   79 1    
    32   15   80 1    
    33   16   17 1    
    34   17   18 1    
    35   17   81 1    
    36   17   82 1    
    37   18   19 1    
    38   18   22 1    
    39   18   83 1    
    40   19   20 am   BACKBONE|DICT|INTERRES
    41   19   21 2    
    42   20   84 1    
    43   20   85 1    
    44   22   23 am   BACKBONE|DICT|INTERRES
    45   22   86 1    
    46   23   24 2    
    47   23   25 1    
    48   25   26 1    
    49   25   27 1    
    50   25   87 1    
    51   26   88 1    
    52   26   89 1    
    53   26   90 1    
    54   27   28 am   BACKBONE|DICT|INTERRES
    55   27   91 1    
    56   28   29 2    
    57   28   30 1    
    58   30   31 1    
    59   30   32 1    
    60   30   92 1    
    61   31   93 1    
    62   31   94 1    
    63   31   95 1    
    64   32   33 am   BACKBONE|DICT|INTERRES
    65   32   96 1    
    66   33   34 2    
    67   33   35 1    
    68   35   36 1    
    69   35   37 1    
    70   35   97 1    
    71   36   98 1    
    72   36   99 1    
    73   36  100 1    
    74   37   38 am   BACKBONE|DICT|INTERRES
    75   37  101 1    
    76   38   39 2    
    77   38   40 1    
    78   40   41 1    
    79   40   42 1    
    80   40  102 1    
    81   41  103 1    
    82   41  104 1    
    83   41  105 1    
    84   42   43 am   BACKBONE|DICT|INTERRES
    85   42  106 1    
    86   43   44 2    
    87   43   45 1    
    88   45   46 1    
    89   45   49 1    
    90   45  107 1    
    91   46   47 1    
    92   46  108 1    
    93   46  109 1    
    94   47   48 1    
    95   48  110 1    
    96   48  111 1    
    97   49   50 am   BACKBONE|DICT|INTERRES
    98   49  112 1    
    99   50   51 2    
   100   50   52 1    
   101   52   53 1    
   102   52   54 1    
   103   52  113 1    
   104   53  114 1    
   105   53  115 1    
   106   53  116 1    
   107   54   55 am   BACKBONE|DICT|INTERRES
   108   54  117 1    
   109   55   56 2    
   110   55   57 1    
   111   57   58 1    
   112   57   59 1    
   113   57  118 1    
   114   58  119 1    
   115   58  120 1    
   116   58  121 1    
   117   59   60 am   BACKBONE|DICT|INTERRES
   118   59  122 1    
   119   60   61 2    
   120   60   62 1    
   121   62   63 1    
   122   62   64 1    
   123   62  123 1    
   124   63  124 1    
   125   63  125 1    
   126   63  126 1    
   127   64   65 am   BACKBONE|DICT|INTERRES
   128   64  127 1    
   129   65   66 2    
@<TRIPOS>SUBSTRUCTURE
     1 UNK         1 GROUP             0       ****    0 ROOT    
