@<TRIPOS>MOLECULE
3R135
127   129    1
SMALL
USER_CHARGES


@<TRIPOS>ATOM
      1 CA        -83.6121   26.7039  -69.8186 C.3       0 UNK        -0.1998 
      2 C         -82.4240   26.9095  -70.7462 C.2       0 UNK         0.4909 
      3 O         -82.2442   28.0056  -71.2758 O.2       0 UNK        -0.5240 
      4 N         -81.6195   25.8591  -70.9568 N.am      1 UNK        -0.4739 
      5 CA        -80.4183   25.8721  -71.8040 C.3       1 UNK         0.0864 
      6 C6        -79.3387   24.8732  -71.2946 C.3       11 UNK        -0.0881 
      7 S7        -78.0814   25.6846  -70.2514 S.3       11 UNK        -0.2682 
      8 C8        -76.7952   26.1265  -71.4703 C.3       11 UNK         0.0289 
      9 C9        -76.8853   27.5893  -71.8839 C.ar      11 UNK        -0.0687 
     10 C10       -77.6816   27.9786  -72.9643 C.ar      11 UNK        -0.0823 
     11 C11       -77.7938   29.3259  -73.3347 C.ar      11 UNK        -0.0830 
     12 C12       -77.0657   30.2802  -72.6161 C.ar      11 UNK        -0.1021 
     13 C13       -76.2296   29.9012  -71.5604 C.ar      11 UNK        -0.0753 
     14 C14       -76.1560   28.5566  -71.1897 C.ar      11 UNK        -0.0933 
     15 C15       -75.3855   30.9357  -70.8307 C.3       11 UNK         0.0166 
     16 S16       -73.6520   30.9001  -71.3965 S.3       11 UNK        -0.2615 
     17 C17       -73.8089   31.5421  -73.0981 C.3       11 UNK        -0.0865 
     18 CA        -73.9023   30.4120  -74.1607 C.3       10 UNK         0.0862 
     19 C         -74.3414   30.9583  -75.5422 C.2       10 UNK         0.5551 
     20 N         -73.5010   31.7114  -76.2359 N.am      10 UNK        -0.7319 
     21 O         -75.4418   30.6618  -75.9990 O.2       10 UNK        -0.5018 
     22 N         -72.7244   29.5359  -74.2311 N.am      10 UNK        -0.4509 
     23 C         -71.4628   29.8549  -74.5452 C.2       10 UNK         0.4899 
     24 O         -71.0801   31.0057  -74.7614 O.2       10 UNK        -0.4839 
     25 CA        -70.4602   28.6942  -74.7023 C.3       9 UNK         0.0222 
     26 CB        -69.2481   28.8465  -73.7600 C.3       9 UNK        -0.1966 
     27 N         -71.0704   27.3556  -74.6234 N.am      9 UNK        -0.4218 
     28 C         -71.5227   26.6969  -73.5433 C.2       9 UNK         0.5020 
     29 O         -71.4146   27.1258  -72.3947 O.2       9 UNK        -0.5274 
     30 CA        -72.2731   25.3655  -73.7710 C.3       8 UNK         0.0270 
     31 CB        -73.5045   25.2583  -72.8523 C.3       8 UNK        -0.1976 
     32 N         -72.7105   25.1692  -75.1575 N.am      8 UNK        -0.4313 
     33 C         -71.9467   24.6887  -76.1473 C.2       8 UNK         0.5041 
     34 O         -70.7832   24.3170  -75.9933 O.2       8 UNK        -0.5577 
     35 CA        -72.5631   24.6774  -77.5566 C.3       7 UNK         0.0284 
     36 CB        -73.4708   23.4512  -77.7446 C.3       7 UNK        -0.1958 
     37 N         -73.3119   25.8982  -77.8746 N.am      7 UNK        -0.4454 
     38 C         -72.8133   27.1420  -77.9097 C.2       7 UNK         0.5089 
     39 O         -71.6390   27.4089  -77.6559 O.2       7 UNK        -0.5125 
     40 CA        -73.7827   28.2925  -78.2500 C.3       6 UNK         0.0408 
     41 CB        -73.9962   28.4174  -79.7705 C.3       6 UNK        -0.1791 
     42 N         -75.0549   28.2389  -77.5140 N.am      6 UNK        -0.4762 
     43 C         -76.0256   27.3207  -77.5942 C.2       6 UNK         0.5007 
     44 O         -76.0610   26.4371  -78.4555 O.2       6 UNK        -0.5032 
     45 CA        -77.0936   27.3539  -76.4801 C.3       5 UNK         0.0783 
     46 C46       -78.2474   28.3134  -76.8501 C.3       11 UNK        -0.0857 
     47 S47       -79.4706   28.5193  -75.5137 S.3       11 UNK        -0.2512 
     48 C48       -78.7035   29.8130  -74.4695 C.3       11 UNK         0.0225 
     49 N         -77.5464   25.9899  -76.1665 N.am      5 UNK        -0.4615 
     50 C         -76.7353   25.0369  -75.6837 C.2       4 UNK         0.5053 
     51 O         -75.5733   25.2651  -75.3396 O.2       4 UNK        -0.5105 
     52 CA        -77.2586   23.5922  -75.6108 C.3       4 UNK         0.0263 
     53 CB        -76.7628   22.8579  -74.3504 C.3       4 UNK        -0.1981 
     54 N         -78.7191   23.4830  -75.6977 N.am      4 UNK        -0.4224 
     55 C         -79.3650   22.5427  -76.4058 C.2       3 UNK         0.4895 
     56 O         -78.7935   21.7562  -77.1628 O.2       3 UNK        -0.5091 
     57 CA        -80.8918   22.3987  -76.2340 C.3       3 UNK         0.0250 
     58 CB        -81.2224   21.0893  -75.4968 C.3       3 UNK        -0.1996 
     59 N         -81.5232   23.5058  -75.5158 N.am      3 UNK        -0.4254 
     60 C         -81.8718   24.6750  -76.0664 C.2       2 UNK         0.5004 
     61 O         -81.7400   24.9331  -77.2632 O.2       2 UNK        -0.5226 
     62 CA        -82.4482   25.7495  -75.1217 C.3       2 UNK         0.0269 
     63 CB        -83.9848   25.7223  -75.1568 C.3       2 UNK        -0.1926 
     64 N         -82.0007   25.6933  -73.7196 N.am      2 UNK        -0.4687 
     65 C         -80.7243   25.6740  -73.3061 C.2       1 UNK         0.5165 
     66 O         -79.7837   25.4963  -74.0770 O.2       1 UNK        -0.5079 
     67 H67       -84.5425   26.9027  -70.3499 H         1 UNK         0.0900 
     68 H68       -83.6547   25.6872  -69.4284 H         1 UNK         0.0900 
     69 H69       -83.5497   27.3886  -68.9732 H         1 UNK         0.0900 
     70 H70       -81.8265   24.9804  -70.5026 H         1 UNK         0.2959 
     71 H71       -79.9964   26.8784  -71.7582 H         1 UNK         0.1079 
     72 H72       -78.8189   24.3504  -72.0980 H         1 UNK         0.0837 
     73 H73       -79.7980   24.0743  -70.7103 H         1 UNK         0.0837 
     74 H74       -75.8200   25.9329  -71.0214 H         1 UNK         0.0685 
     75 H75       -76.8497   25.4843  -72.3499 H         1 UNK         0.0685 
     76 H76       -78.2163   27.2204  -73.5084 H         1 UNK         0.1434 
     77 H77       -77.1347   31.3232  -72.8938 H         1 UNK         0.1329 
     78 H78       -75.5182   28.2625  -70.3672 H         1 UNK         0.1335 
     79 H79       -75.4104   30.7339  -69.7588 H         1 UNK         0.0680 
     80 H80       -75.7963   31.9380  -70.9615 H         1 UNK         0.0680 
     81 H81       -72.9564   32.1919  -73.3003 H         1 UNK         0.1032 
     82 H82       -74.6864   32.1892  -73.1468 H         1 UNK         0.1032 
     83 H83       -74.6991   29.7377  -73.8505 H         1 UNK         0.0461 
     84 H84       -72.5694   31.8757  -75.8738 H         1 UNK         0.3453 
     85 H85       -73.7720   32.0709  -77.1370 H         1 UNK         0.3453 
     86 H86       -72.9124   28.5617  -74.0526 H         1 UNK         0.2984 
     87 H87       -70.0819   28.7709  -75.7226 H         1 UNK         0.0554 
     88 H88       -68.7067   29.7690  -73.9728 H         1 UNK         0.0847 
     89 H89       -68.5439   28.0233  -73.8793 H         1 UNK         0.0847 
     90 H90       -69.5462   28.8878  -72.7122 H         1 UNK         0.0847 
     91 H91       -71.2210   26.9205  -75.5266 H         1 UNK         0.3141 
     92 H92       -71.5839   24.5623  -73.5022 H         1 UNK         0.0743 
     93 H93       -74.2094   26.0704  -73.0348 H         1 UNK         0.0784 
     94 H94       -74.0332   24.3172  -73.0035 H         1 UNK         0.0784 
     95 H95       -73.2209   25.3007  -71.8000 H         1 UNK         0.0784 
     96 H96       -73.6862   25.3865  -75.3565 H         1 UNK         0.3213 
     97 H97       -71.7417   24.6056  -78.2726 H         1 UNK         0.0855 
     98 H98       -74.3252   23.4718  -77.0680 H         1 UNK         0.0814 
     99 H99       -72.9235   22.5280  -77.5492 H         1 UNK         0.0814 
    100 H100      -73.8519   23.3913  -78.7642 H         1 UNK         0.0814 
    101 H101      -74.2996   25.7957  -78.0928 H         1 UNK         0.3105 
    102 H102      -73.2974   29.2120  -77.9191 H         1 UNK         0.0547 
    103 H103      -73.0463   28.5802  -80.2812 H         1 UNK         0.0837 
    104 H104      -74.4416   27.5206  -80.2013 H         1 UNK         0.0837 
    105 H105      -74.6419   29.2617  -80.0114 H         1 UNK         0.0837 
    106 H106      -75.1704   28.9806  -76.8276 H         1 UNK         0.3020 
    107 H107      -76.6075   27.7413  -75.5822 H         1 UNK         0.1245 
    108 H108      -77.8616   29.2988  -77.1195 H         1 UNK         0.0781 
    109 H109      -78.7743   27.9462  -77.7328 H         1 UNK         0.0781 
    110 H110      -79.5123   30.3899  -74.0190 H         1 UNK         0.0836 
    111 H111      -78.1540   30.5101  -75.1039 H         1 UNK         0.0836 
    112 H112      -78.4924   25.7534  -76.4249 H         1 UNK         0.3022 
    113 H113      -76.8086   23.0994  -76.4747 H         1 UNK         0.0747 
    114 H114      -77.0780   21.8145  -74.3508 H         1 UNK         0.0793 
    115 H115      -75.6737   22.8618  -74.2921 H         1 UNK         0.0793 
    116 H116      -77.1417   23.3215  -73.4406 H         1 UNK         0.0793 
    117 H117      -79.2466   24.1334  -75.1154 H         1 UNK         0.3047 
    118 H118      -81.3231   22.3396  -77.2359 H         1 UNK         0.0822 
    119 H119      -82.2992   20.9352  -75.4240 H         1 UNK         0.0807 
    120 H120      -80.8113   21.0798  -74.4865 H         1 UNK         0.0807 
    121 H121      -80.8102   20.2274  -76.0237 H         1 UNK         0.0807 
    122 H122      -81.6598   23.3897  -74.5222 H         1 UNK         0.2946 
    123 H123      -82.1165   26.7124  -75.5169 H         1 UNK         0.1144 
    124 H124      -84.3549   25.7898  -76.1810 H         1 UNK         0.0793 
    125 H125      -84.4102   26.5618  -74.6064 H         1 UNK         0.0793 
    126 H126      -84.3810   24.8015  -74.7268 H         1 UNK         0.0793 
    127 H127      -82.7115   25.8280  -73.0155 H         1 UNK         0.2896 
@<TRIPOS>BOND
     1    1    2 1    
     2    1   67 1    
     3    1   68 1    
     4    1   69 1    
     5    2    3 2    
     6    2    4 am   BACKBONE|DICT|INTERRES
     7    4    5 1    
     8    4   70 1    
     9    5    6 1    
    10    5   65 1    
    11    5   71 1    
    12    6    7 1    
    13    6   72 1    
    14    6   73 1    
    15    7    8 1    
    16    8    9 1    
    17    8   74 1    
    18    8   75 1    
    19    9   10 ar   
    20    9   14 ar   
    21   10   11 ar   
    22   10   76 1    
    23   11   12 ar   
    24   11   48 1    
    25   12   13 ar   
    26   12   77 1    
    27   13   14 ar   
    28   13   15 1    
    29   14   78 1    
    30   15   16 1    
    31   15   79 1    
    32   15   80 1    
    33   16   17 1    
    34   17   18 1    
    35   17   81 1    
    36   17   82 1    
    37   18   19 1    
    38   18   22 1    
    39   18   83 1    
    40   19   20 am   BACKBONE|DICT|INTERRES
    41   19   21 2    
    42   20   84 1    
    43   20   85 1    
    44   22   23 am   BACKBONE|DICT|INTERRES
    45   22   86 1    
    46   23   24 2    
    47   23   25 1    
    48   25   26 1    
    49   25   27 1    
    50   25   87 1    
    51   26   88 1    
    52   26   89 1    
    53   26   90 1    
    54   27   28 am   BACKBONE|DICT|INTERRES
    55   27   91 1    
    56   28   29 2    
    57   28   30 1    
    58   30   31 1    
    59   30   32 1    
    60   30   92 1    
    61   31   93 1    
    62   31   94 1    
    63   31   95 1    
    64   32   33 am   BACKBONE|DICT|INTERRES
    65   32   96 1    
    66   33   34 2    
    67   33   35 1    
    68   35   36 1    
    69   35   37 1    
    70   35   97 1    
    71   36   98 1    
    72   36   99 1    
    73   36  100 1    
    74   37   38 am   BACKBONE|DICT|INTERRES
    75   37  101 1    
    76   38   39 2    
    77   38   40 1    
    78   40   41 1    
    79   40   42 1    
    80   40  102 1    
    81   41  103 1    
    82   41  104 1    
    83   41  105 1    
    84   42   43 am   BACKBONE|DICT|INTERRES
    85   42  106 1    
    86   43   44 2    
    87   43   45 1    
    88   45   46 1    
    89   45   49 1    
    90   45  107 1    
    91   46   47 1    
    92   46  108 1    
    93   46  109 1    
    94   47   48 1    
    95   48  110 1    
    96   48  111 1    
    97   49   50 am   BACKBONE|DICT|INTERRES
    98   49  112 1    
    99   50   51 2    
   100   50   52 1    
   101   52   53 1    
   102   52   54 1    
   103   52  113 1    
   104   53  114 1    
   105   53  115 1    
   106   53  116 1    
   107   54   55 am   BACKBONE|DICT|INTERRES
   108   54  117 1    
   109   55   56 2    
   110   55   57 1    
   111   57   58 1    
   112   57   59 1    
   113   57  118 1    
   114   58  119 1    
   115   58  120 1    
   116   58  121 1    
   117   59   60 am   BACKBONE|DICT|INTERRES
   118   59  122 1    
   119   60   61 2    
   120   60   62 1    
   121   62   63 1    
   122   62   64 1    
   123   62  123 1    
   124   63  124 1    
   125   63  125 1    
   126   63  126 1    
   127   64   65 am   BACKBONE|DICT|INTERRES
   128   64  127 1    
   129   65   66 2    
@<TRIPOS>SUBSTRUCTURE
     1 UNK         1 GROUP             0       ****    0 ROOT    
