@<TRIPOS>MOLECULE
3R135
127   129    1
SMALL
USER_CHARGES


@<TRIPOS>ATOM
      1 CA        -83.5944   27.0428  -76.3308 C.3       0 UNK        -0.1998 
      2 C         -82.2668   27.6657  -75.9289 C.2       0 UNK         0.4909 
      3 O         -81.4556   27.9887  -76.7971 O.2       0 UNK        -0.5240 
      4 N         -82.0330   27.8356  -74.6199 N.am      1 UNK        -0.4739 
      5 CA        -80.8031   28.4103  -74.0635 C.3       1 UNK         0.0864 
      6 C6        -80.9316   28.6804  -72.5451 C.3       11 UNK        -0.0881 
      7 S7        -79.8303   30.0294  -72.0018 S.3       11 UNK        -0.2682 
      8 C8        -79.3597   29.4784  -70.3332 C.3       11 UNK         0.0289 
      9 C9        -78.1569   28.5456  -70.3507 C.ar      11 UNK        -0.0687 
     10 C10       -78.3257   27.1607  -70.2467 C.ar      11 UNK        -0.0823 
     11 C11       -77.2150   26.3108  -70.1960 C.ar      11 UNK        -0.0830 
     12 C12       -75.9298   26.8599  -70.2604 C.ar      11 UNK        -0.1021 
     13 C13       -75.7484   28.2401  -70.3781 C.ar      11 UNK        -0.0753 
     14 C14       -76.8658   29.0784  -70.4201 C.ar      11 UNK        -0.0933 
     15 C15       -74.3426   28.8196  -70.4275 C.3       11 UNK         0.0166 
     16 S16       -73.7306   28.9544  -72.1346 S.3       11 UNK        -0.2615 
     17 C17       -74.5650   30.4775  -72.6944 C.3       11 UNK        -0.0865 
     18 CA        -73.8519   31.1237  -73.9114 C.3       10 UNK         0.0862 
     19 C         -74.6913   32.3082  -74.4749 C.2       10 UNK         0.5551 
     20 N         -74.1770   33.5317  -74.5025 N.am      10 UNK        -0.7319 
     21 O         -75.8226   32.1081  -74.9073 O.2       10 UNK        -0.5018 
     22 N         -72.4499   31.4592  -73.5955 N.am      10 UNK        -0.4509 
     23 C         -71.4192   31.6132  -74.4385 C.2       10 UNK         0.4899 
     24 O         -70.2927   31.8805  -74.0219 O.2       10 UNK        -0.4839 
     25 CA        -71.6056   31.4078  -75.9532 C.3       9 UNK         0.0222 
     26 CB        -70.8338   32.4657  -76.7637 C.3       9 UNK        -0.1966 
     27 N         -71.0896   30.0825  -76.2870 N.am      9 UNK        -0.4218 
     28 C         -71.8221   29.0538  -76.7301 C.2       9 UNK         0.5020 
     29 O         -73.0262   29.1359  -76.9722 O.2       9 UNK        -0.5274 
     30 CA        -71.0979   27.7096  -76.9520 C.3       8 UNK         0.0270 
     31 CB        -69.5699   27.7691  -76.7377 C.3       8 UNK        -0.1976 
     32 N         -71.6592   26.6831  -76.0720 N.am      8 UNK        -0.4313 
     33 C         -72.7174   25.9133  -76.3556 C.2       8 UNK         0.5041 
     34 O         -73.3070   25.9241  -77.4399 O.2       8 UNK        -0.5577 
     35 CA        -73.1746   24.9662  -75.2323 C.3       7 UNK         0.0284 
     36 CB        -73.6548   25.7533  -73.9987 C.3       7 UNK        -0.1958 
     37 N         -74.2761   24.1244  -75.6927 N.am      7 UNK        -0.4454 
     38 C         -74.1971   22.8305  -76.0226 C.2       7 UNK         0.5089 
     39 O         -73.1642   22.1608  -75.9572 O.2       7 UNK        -0.5125 
     40 CA        -75.5220   22.1867  -76.4789 C.3       6 UNK         0.0408 
     41 CB        -75.4395   20.6567  -76.6646 C.3       6 UNK        -0.1791 
     42 N         -76.6256   22.5760  -75.5926 N.am      6 UNK        -0.4762 
     43 C         -76.7845   22.2655  -74.2957 C.2       6 UNK         0.5007 
     44 O         -76.1130   21.4215  -73.7013 O.2       6 UNK        -0.5032 
     45 CA        -77.8670   23.0545  -73.5230 C.3       5 UNK         0.0783 
     46 C46       -77.2471   24.2713  -72.7907 C.3       11 UNK        -0.0857 
     47 S47       -76.4465   23.8193  -71.2184 S.3       11 UNK        -0.2512 
     48 C48       -77.4072   24.8065  -70.0230 C.3       11 UNK         0.0225 
     49 N         -78.9749   23.4881  -74.3776 N.am      5 UNK        -0.4615 
     50 C         -79.8617   22.6813  -74.9736 C.2       4 UNK         0.5053 
     51 O         -79.8861   21.4591  -74.8307 O.2       4 UNK        -0.5105 
     52 CA        -80.8829   23.3597  -75.8997 C.3       4 UNK         0.0263 
     53 CB        -82.0941   23.8624  -75.0981 C.3       4 UNK        -0.1981 
     54 N         -80.2794   24.4694  -76.6439 N.am      4 UNK        -0.4224 
     55 C         -79.4946   24.3111  -77.7202 C.2       3 UNK         0.4895 
     56 O         -79.2769   23.2238  -78.2545 O.2       3 UNK        -0.5091 
     57 CA        -78.8164   25.5699  -78.2875 C.3       3 UNK         0.0250 
     58 CB        -79.7106   26.2389  -79.3432 C.3       3 UNK        -0.1996 
     59 N         -78.4581   26.5431  -77.2521 N.am      3 UNK        -0.4254 
     60 C         -77.4744   26.3602  -76.3578 C.2       2 UNK         0.5004 
     61 O         -76.7578   25.3617  -76.3263 O.2       2 UNK        -0.5226 
     62 CA        -77.2749   27.4469  -75.2878 C.3       2 UNK         0.0269 
     63 CB        -76.2510   28.4815  -75.7733 C.3       2 UNK        -0.1926 
     64 N         -78.5082   28.1292  -74.8880 N.am      2 UNK        -0.4687 
     65 C         -79.5875   27.5187  -74.3810 C.2       1 UNK         0.5165 
     66 O         -79.6620   26.3010  -74.1953 O.2       1 UNK        -0.5079 
     67 H67       -84.2391   27.7969  -76.7810 H         1 UNK         0.0900 
     68 H68       -84.1165   26.6114  -75.4770 H         1 UNK         0.0900 
     69 H69       -83.4325   26.2538  -77.0647 H         1 UNK         0.0900 
     70 H70       -82.7207   27.5276  -73.9475 H         1 UNK         0.2959 
     71 H71       -80.6675   29.3677  -74.5724 H         1 UNK         0.1079 
     72 H72       -80.7540   27.7740  -71.9631 H         1 UNK         0.0837 
     73 H73       -81.9481   28.9947  -72.3027 H         1 UNK         0.0837 
     74 H74       -79.1212   30.3583  -69.7338 H         1 UNK         0.0685 
     75 H75       -80.2125   29.0060  -69.8431 H         1 UNK         0.0685 
     76 H76       -79.3226   26.7471  -70.1806 H         1 UNK         0.1434 
     77 H77       -75.0664   26.2101  -70.2147 H         1 UNK         0.1329 
     78 H78       -76.7322   30.1488  -70.4950 H         1 UNK         0.1335 
     79 H79       -74.3106   29.7938  -69.9375 H         1 UNK         0.0680 
     80 H80       -73.6613   28.1790  -69.8654 H         1 UNK         0.0680 
     81 H81       -74.6143   31.1895  -71.8686 H         1 UNK         0.1032 
     82 H82       -75.5987   30.2216  -72.9341 H         1 UNK         0.1032 
     83 H83       -73.8406   30.3664  -74.6953 H         1 UNK         0.0461 
     84 H84       -73.2593   33.7122  -74.1281 H         1 UNK         0.3453 
     85 H85       -74.7284   34.2894  -74.8739 H         1 UNK         0.3453 
     86 H86       -72.2644   31.5812  -72.6114 H         1 UNK         0.2984 
     87 H87       -72.6529   31.5049  -76.2348 H         1 UNK         0.0554 
     88 H88       -70.9887   32.3307  -77.8343 H         1 UNK         0.0847 
     89 H89       -69.7598   32.4269  -76.5770 H         1 UNK         0.0847 
     90 H90       -71.1734   33.4713  -76.5124 H         1 UNK         0.0847 
     91 H91       -70.1153   29.9223  -76.0712 H         1 UNK         0.3141 
     92 H92       -71.2718   27.4281  -77.9928 H         1 UNK         0.0743 
     93 H93       -69.1040   28.5006  -77.3998 H         1 UNK         0.0784 
     94 H94       -69.3042   28.0240  -75.7108 H         1 UNK         0.0784 
     95 H95       -69.1098   26.8067  -76.9636 H         1 UNK         0.0784 
     96 H96       -71.2546   26.6195  -75.1488 H         1 UNK         0.3213 
     97 H97       -72.3234   24.3457  -74.9440 H         1 UNK         0.0855 
     98 H98       -72.8460   26.3350  -73.5563 H         1 UNK         0.0814 
     99 H99       -74.0243   25.0846  -73.2208 H         1 UNK         0.0814 
    100 H100      -74.4558   26.4492  -74.2479 H         1 UNK         0.0814 
    101 H101      -75.1525   24.6068  -75.8875 H         1 UNK         0.3105 
    102 H102      -75.7530   22.6215  -77.4526 H         1 UNK         0.0547 
    103 H103      -74.7165   20.4008  -77.4397 H         1 UNK         0.0837 
    104 H104      -75.1249   20.1483  -75.7531 H         1 UNK         0.0837 
    105 H105      -76.4007   20.2417  -76.9672 H         1 UNK         0.0837 
    106 H106      -77.1970   23.3343  -75.9477 H         1 UNK         0.3020 
    107 H107      -78.2919   22.3745  -72.7809 H         1 UNK         0.1245 
    108 H108      -78.0205   25.0084  -72.5717 H         1 UNK         0.0781 
    109 H109      -76.5234   24.7913  -73.4201 H         1 UNK         0.0781 
    110 H110      -77.0982   24.5306  -69.0141 H         1 UNK         0.0836 
    111 H111      -78.4604   24.5336  -70.1070 H         1 UNK         0.0836 
    112 H112      -79.0928   24.4918  -74.4838 H         1 UNK         0.3022 
    113 H113      -81.2372   22.6093  -76.6100 H         1 UNK         0.0747 
    114 H114      -82.8753   24.2357  -75.7588 H         1 UNK         0.0793 
    115 H115      -82.5330   23.0557  -74.5093 H         1 UNK         0.0793 
    116 H116      -81.8241   24.6603  -74.4055 H         1 UNK         0.0793 
    117 H117      -80.3677   25.3930  -76.2418 H         1 UNK         0.3047 
    118 H118      -77.8946   25.2511  -78.7797 H         1 UNK         0.0822 
    119 H119      -79.2195   27.1034  -79.7902 H         1 UNK         0.0807 
    120 H120      -80.6589   26.5723  -78.9207 H         1 UNK         0.0807 
    121 H121      -79.9425   25.5448  -80.1522 H         1 UNK         0.0807 
    122 H122      -79.0276   27.3768  -77.1883 H         1 UNK         0.2946 
    123 H123      -76.8739   26.9598  -74.3971 H         1 UNK         0.1144 
    124 H124      -75.3107   28.0008  -76.0475 H         1 UNK         0.0793 
    125 H125      -76.0257   29.2102  -74.9977 H         1 UNK         0.0793 
    126 H126      -76.6051   29.0247  -76.6502 H         1 UNK         0.0793 
    127 H127      -78.5267   29.1321  -75.0072 H         1 UNK         0.2896 
@<TRIPOS>BOND
     1    1    2 1    
     2    1   67 1    
     3    1   68 1    
     4    1   69 1    
     5    2    3 2    
     6    2    4 am   BACKBONE|DICT|INTERRES
     7    4    5 1    
     8    4   70 1    
     9    5    6 1    
    10    5   65 1    
    11    5   71 1    
    12    6    7 1    
    13    6   72 1    
    14    6   73 1    
    15    7    8 1    
    16    8    9 1    
    17    8   74 1    
    18    8   75 1    
    19    9   10 ar   
    20    9   14 ar   
    21   10   11 ar   
    22   10   76 1    
    23   11   12 ar   
    24   11   48 1    
    25   12   13 ar   
    26   12   77 1    
    27   13   14 ar   
    28   13   15 1    
    29   14   78 1    
    30   15   16 1    
    31   15   79 1    
    32   15   80 1    
    33   16   17 1    
    34   17   18 1    
    35   17   81 1    
    36   17   82 1    
    37   18   19 1    
    38   18   22 1    
    39   18   83 1    
    40   19   20 am   BACKBONE|DICT|INTERRES
    41   19   21 2    
    42   20   84 1    
    43   20   85 1    
    44   22   23 am   BACKBONE|DICT|INTERRES
    45   22   86 1    
    46   23   24 2    
    47   23   25 1    
    48   25   26 1    
    49   25   27 1    
    50   25   87 1    
    51   26   88 1    
    52   26   89 1    
    53   26   90 1    
    54   27   28 am   BACKBONE|DICT|INTERRES
    55   27   91 1    
    56   28   29 2    
    57   28   30 1    
    58   30   31 1    
    59   30   32 1    
    60   30   92 1    
    61   31   93 1    
    62   31   94 1    
    63   31   95 1    
    64   32   33 am   BACKBONE|DICT|INTERRES
    65   32   96 1    
    66   33   34 2    
    67   33   35 1    
    68   35   36 1    
    69   35   37 1    
    70   35   97 1    
    71   36   98 1    
    72   36   99 1    
    73   36  100 1    
    74   37   38 am   BACKBONE|DICT|INTERRES
    75   37  101 1    
    76   38   39 2    
    77   38   40 1    
    78   40   41 1    
    79   40   42 1    
    80   40  102 1    
    81   41  103 1    
    82   41  104 1    
    83   41  105 1    
    84   42   43 am   BACKBONE|DICT|INTERRES
    85   42  106 1    
    86   43   44 2    
    87   43   45 1    
    88   45   46 1    
    89   45   49 1    
    90   45  107 1    
    91   46   47 1    
    92   46  108 1    
    93   46  109 1    
    94   47   48 1    
    95   48  110 1    
    96   48  111 1    
    97   49   50 am   BACKBONE|DICT|INTERRES
    98   49  112 1    
    99   50   51 2    
   100   50   52 1    
   101   52   53 1    
   102   52   54 1    
   103   52  113 1    
   104   53  114 1    
   105   53  115 1    
   106   53  116 1    
   107   54   55 am   BACKBONE|DICT|INTERRES
   108   54  117 1    
   109   55   56 2    
   110   55   57 1    
   111   57   58 1    
   112   57   59 1    
   113   57  118 1    
   114   58  119 1    
   115   58  120 1    
   116   58  121 1    
   117   59   60 am   BACKBONE|DICT|INTERRES
   118   59  122 1    
   119   60   61 2    
   120   60   62 1    
   121   62   63 1    
   122   62   64 1    
   123   62  123 1    
   124   63  124 1    
   125   63  125 1    
   126   63  126 1    
   127   64   65 am   BACKBONE|DICT|INTERRES
   128   64  127 1    
   129   65   66 2    
@<TRIPOS>SUBSTRUCTURE
     1 UNK         1 GROUP             0       ****    0 ROOT    
