@<TRIPOS>MOLECULE
3R135
127   129    1
SMALL
USER_CHARGES


@<TRIPOS>ATOM
      1 CA        -85.2047   28.5298  -74.1349 C.3       0 UNK        -0.1998 
      2 C         -84.0268   27.6435  -73.7596 C.2       0 UNK         0.4909 
      3 O         -84.2298   26.4854  -73.3930 O.2       0 UNK        -0.5240 
      4 N         -82.8010   28.1773  -73.8645 N.am      1 UNK        -0.4739 
      5 CA        -81.5014   27.5591  -73.5416 C.3       1 UNK         0.0864 
      6 C6        -81.3725   27.0622  -72.0760 C.3       11 UNK        -0.0881 
      7 S7        -81.6645   28.3987  -70.8666 S.3       11 UNK        -0.2682 
      8 C8        -80.0732   28.4718  -69.9731 C.3       11 UNK         0.0289 
      9 C9        -78.8710   28.8688  -70.8294 C.ar      11 UNK        -0.0687 
     10 C10       -78.9765   29.8154  -71.8560 C.ar      11 UNK        -0.0823 
     11 C11       -77.8594   30.1777  -72.6160 C.ar      11 UNK        -0.0830 
     12 C12       -76.6183   29.6044  -72.3221 C.ar      11 UNK        -0.1021 
     13 C13       -76.4940   28.6701  -71.2905 C.ar      11 UNK        -0.0753 
     14 C14       -77.6223   28.3042  -70.5520 C.ar      11 UNK        -0.0933 
     15 C15       -75.1386   28.0582  -70.9798 C.3       11 UNK         0.0166 
     16 S16       -74.0787   29.2371  -70.0861 S.3       11 UNK        -0.2615 
     17 C17       -72.4777   28.3596  -70.1092 C.3       11 UNK        -0.0865 
     18 CA        -71.5430   28.8533  -71.2456 C.3       10 UNK         0.0862 
     19 C         -70.1271   28.2197  -71.1153 C.2       10 UNK         0.5551 
     20 N         -69.6782   27.3828  -72.0433 N.am      10 UNK        -0.7319 
     21 O         -69.4199   28.5000  -70.1506 O.2       10 UNK        -0.5018 
     22 N         -72.1666   28.6721  -72.5639 N.am      10 UNK        -0.4509 
     23 C         -71.8501   29.3451  -73.6730 C.2       10 UNK         0.4899 
     24 O         -71.0059   30.2408  -73.7321 O.2       10 UNK        -0.4839 
     25 CA        -72.6120   28.9191  -74.9389 C.3       9 UNK         0.0222 
     26 CB        -73.1613   30.1376  -75.7002 C.3       9 UNK        -0.1966 
     27 N         -71.8041   28.0990  -75.8456 N.am      9 UNK        -0.4218 
     28 C         -71.1416   26.9761  -75.5329 C.2       9 UNK         0.5020 
     29 O         -71.0989   26.4804  -74.4047 O.2       9 UNK        -0.5274 
     30 CA        -70.4522   26.2499  -76.6998 C.3       8 UNK         0.0270 
     31 CB        -69.1789   25.5098  -76.2501 C.3       8 UNK        -0.1976 
     32 N         -71.3813   25.2898  -77.2950 N.am      8 UNK        -0.4313 
     33 C         -72.4114   25.6163  -78.0858 C.2       8 UNK         0.5041 
     34 O         -72.5993   26.7651  -78.4930 O.2       8 UNK        -0.5577 
     35 CA        -73.3789   24.4842  -78.4928 C.3       7 UNK         0.0284 
     36 CB        -73.2606   23.2189  -77.6172 C.3       7 UNK        -0.1958 
     37 N         -74.7637   24.9540  -78.4463 N.am      7 UNK        -0.4454 
     38 C         -75.4010   25.5900  -79.4379 C.2       7 UNK         0.5089 
     39 O         -74.9295   25.7648  -80.5628 O.2       7 UNK        -0.5125 
     40 CA        -76.8147   26.1137  -79.1299 C.3       6 UNK         0.0408 
     41 CB        -77.8705   25.0507  -79.4695 C.3       6 UNK        -0.1791 
     42 N         -76.9792   26.5410  -77.7372 N.am      6 UNK        -0.4762 
     43 C         -76.4828   27.6787  -77.2262 C.2       6 UNK         0.5007 
     44 O         -75.8266   28.4867  -77.8830 O.2       6 UNK        -0.5032 
     45 CA        -76.7938   27.9843  -75.7463 C.3       5 UNK         0.0783 
     46 C46       -77.9114   29.0573  -75.6158 C.3       11 UNK        -0.0857 
     47 S47       -77.2117   30.7150  -75.3084 S.3       11 UNK        -0.2512 
     48 C48       -78.0084   31.2028  -73.7378 C.3       11 UNK         0.0225 
     49 N         -77.1210   26.7653  -74.9997 N.am      5 UNK        -0.4615 
     50 C         -76.2124   26.0024  -74.3785 C.2       4 UNK         0.5053 
     51 O         -75.0099   26.2584  -74.3409 O.2       4 UNK        -0.5105 
     52 CA        -76.7235   24.7254  -73.6938 C.3       4 UNK         0.0263 
     53 CB        -77.4033   25.0628  -72.3577 C.3       4 UNK        -0.1981 
     54 N         -77.6388   23.9323  -74.5170 N.am      4 UNK        -0.4224 
     55 C         -77.3738   23.4113  -75.7219 C.2       3 UNK         0.4895 
     56 O         -76.3281   23.6085  -76.3394 O.2       3 UNK        -0.5091 
     57 CA        -78.4695   22.5421  -76.3673 C.3       3 UNK         0.0250 
     58 CB        -78.5453   21.1496  -75.7099 C.3       3 UNK        -0.1996 
     59 N         -79.7830   23.2011  -76.4280 N.am      3 UNK        -0.4254 
     60 C         -80.5851   23.5490  -75.4117 C.2       2 UNK         0.5004 
     61 O         -80.3775   23.2593  -74.2301 O.2       2 UNK        -0.5226 
     62 CA        -81.8068   24.4080  -75.7769 C.3       2 UNK         0.0269 
     63 CB        -83.0838   23.5535  -75.7926 C.3       2 UNK        -0.1926 
     64 N         -81.9920   25.5319  -74.8544 N.am      2 UNK        -0.4687 
     65 C         -81.0806   26.4643  -74.5441 C.2       1 UNK         0.5165 
     66 O         -79.9488   26.4996  -75.0312 O.2       1 UNK        -0.5079 
     67 H67       -85.8760   28.6393  -73.2836 H         1 UNK         0.0900 
     68 H68       -84.8856   29.5248  -74.4446 H         1 UNK         0.0900 
     69 H69       -85.7646   28.0820  -74.9554 H         1 UNK         0.0900 
     70 H70       -82.7300   29.1279  -74.2002 H         1 UNK         0.2959 
     71 H71       -80.7712   28.3593  -73.6691 H         1 UNK         0.1079 
     72 H72       -80.3814   26.6396  -71.9044 H         1 UNK         0.0837 
     73 H73       -82.0771   26.2544  -71.8729 H         1 UNK         0.0837 
     74 H74       -80.1672   29.1930  -69.1605 H         1 UNK         0.0685 
     75 H75       -79.9018   27.5013  -69.5044 H         1 UNK         0.0685 
     76 H76       -79.9332   30.2745  -72.0630 H         1 UNK         0.1434 
     77 H77       -75.7448   29.8879  -72.8932 H         1 UNK         0.1329 
     78 H78       -77.5247   27.5845  -69.7506 H         1 UNK         0.1335 
     79 H79       -74.6653   27.7549  -71.9134 H         1 UNK         0.0680 
     80 H80       -75.2496   27.1529  -70.3811 H         1 UNK         0.0680 
     81 H81       -72.0079   28.5215  -69.1370 H         1 UNK         0.1032 
     82 H82       -72.6447   27.2833  -70.1835 H         1 UNK         0.1032 
     83 H83       -71.3991   29.9261  -71.1026 H         1 UNK         0.0461 
     84 H84       -68.7589   26.9837  -71.9439 H         1 UNK         0.3453 
     85 H85       -70.2565   27.1281  -72.8403 H         1 UNK         0.3453 
     86 H86       -72.8175   27.9052  -72.6429 H         1 UNK         0.2984 
     87 H87       -73.4667   28.3140  -74.6367 H         1 UNK         0.0554 
     88 H88       -73.7832   30.7550  -75.0504 H         1 UNK         0.0847 
     89 H89       -73.7820   29.8338  -76.5434 H         1 UNK         0.0847 
     90 H90       -72.3604   30.7709  -76.0837 H         1 UNK         0.0847 
     91 H91       -71.8232   28.3652  -76.8210 H         1 UNK         0.3141 
     92 H92       -70.1627   26.9874  -77.4519 H         1 UNK         0.0743 
     93 H93       -68.4745   26.1991  -75.7824 H         1 UNK         0.0784 
     94 H94       -69.3965   24.7252  -75.5241 H         1 UNK         0.0784 
     95 H95       -68.6683   25.0502  -77.0966 H         1 UNK         0.0784 
     96 H96       -71.3066   24.3348  -76.9758 H         1 UNK         0.3213 
     97 H97       -73.1294   24.2056  -79.5187 H         1 UNK         0.0855 
     98 H98       -73.4268   23.4383  -76.5612 H         1 UNK         0.0814 
     99 H99       -72.2815   22.7490  -77.7174 H         1 UNK         0.0814 
    100 H100      -73.9971   22.4709  -77.9124 H         1 UNK         0.0814 
    101 H101      -75.2585   24.8082  -77.5721 H         1 UNK         0.3105 
    102 H102      -76.9939   26.9787  -79.7722 H         1 UNK         0.0547 
    103 H103      -78.8803   25.4139  -79.2785 H         1 UNK         0.0837 
    104 H104      -77.8192   24.7786  -80.5246 H         1 UNK         0.0837 
    105 H105      -77.7213   24.1380  -78.8945 H         1 UNK         0.0837 
    106 H106      -77.4867   25.9243  -77.1202 H         1 UNK         0.3020 
    107 H107      -75.8720   28.3917  -75.3250 H         1 UNK         0.1245 
    108 H108      -78.5851   28.8097  -74.7962 H         1 UNK         0.0781 
    109 H109      -78.5534   29.1013  -76.4982 H         1 UNK         0.0781 
    110 H110      -79.0624   31.3998  -73.9398 H         1 UNK         0.0836 
    111 H111      -77.5785   32.1487  -73.4062 H         1 UNK         0.0836 
    112 H112      -78.1061   26.5090  -74.9658 H         1 UNK         0.3022 
    113 H113      -75.8558   24.0964  -73.4847 H         1 UNK         0.0747 
    114 H114      -77.7267   24.1623  -71.8355 H         1 UNK         0.0793 
    115 H115      -76.7173   25.5909  -71.6955 H         1 UNK         0.0793 
    116 H116      -78.2757   25.7006  -72.5006 H         1 UNK         0.0793 
    117 H117      -78.5594   23.7369  -74.1299 H         1 UNK         0.3047 
    118 H118      -78.1710   22.3817  -77.4041 H         1 UNK         0.0822 
    119 H119      -77.5845   20.6378  -75.7783 H         1 UNK         0.0807 
    120 H120      -79.2838   20.5186  -76.2043 H         1 UNK         0.0807 
    121 H121      -78.8053   21.2028  -74.6526 H         1 UNK         0.0807 
    122 H122      -80.0600   23.4928  -77.3551 H         1 UNK         0.2946 
    123 H123      -81.6569   24.8316  -76.7722 H         1 UNK         0.1144 
    124 H124      -83.9501   24.1388  -76.1018 H         1 UNK         0.0793 
    125 H125      -83.2972   23.1335  -74.8086 H         1 UNK         0.0793 
    126 H126      -82.9898   22.7201  -76.4903 H         1 UNK         0.0793 
    127 H127      -82.8904   25.6015  -74.3834 H         1 UNK         0.2896 
@<TRIPOS>BOND
     1    1    2 1    
     2    1   67 1    
     3    1   68 1    
     4    1   69 1    
     5    2    3 2    
     6    2    4 am   BACKBONE|DICT|INTERRES
     7    4    5 1    
     8    4   70 1    
     9    5    6 1    
    10    5   65 1    
    11    5   71 1    
    12    6    7 1    
    13    6   72 1    
    14    6   73 1    
    15    7    8 1    
    16    8    9 1    
    17    8   74 1    
    18    8   75 1    
    19    9   10 ar   
    20    9   14 ar   
    21   10   11 ar   
    22   10   76 1    
    23   11   12 ar   
    24   11   48 1    
    25   12   13 ar   
    26   12   77 1    
    27   13   14 ar   
    28   13   15 1    
    29   14   78 1    
    30   15   16 1    
    31   15   79 1    
    32   15   80 1    
    33   16   17 1    
    34   17   18 1    
    35   17   81 1    
    36   17   82 1    
    37   18   19 1    
    38   18   22 1    
    39   18   83 1    
    40   19   20 am   BACKBONE|DICT|INTERRES
    41   19   21 2    
    42   20   84 1    
    43   20   85 1    
    44   22   23 am   BACKBONE|DICT|INTERRES
    45   22   86 1    
    46   23   24 2    
    47   23   25 1    
    48   25   26 1    
    49   25   27 1    
    50   25   87 1    
    51   26   88 1    
    52   26   89 1    
    53   26   90 1    
    54   27   28 am   BACKBONE|DICT|INTERRES
    55   27   91 1    
    56   28   29 2    
    57   28   30 1    
    58   30   31 1    
    59   30   32 1    
    60   30   92 1    
    61   31   93 1    
    62   31   94 1    
    63   31   95 1    
    64   32   33 am   BACKBONE|DICT|INTERRES
    65   32   96 1    
    66   33   34 2    
    67   33   35 1    
    68   35   36 1    
    69   35   37 1    
    70   35   97 1    
    71   36   98 1    
    72   36   99 1    
    73   36  100 1    
    74   37   38 am   BACKBONE|DICT|INTERRES
    75   37  101 1    
    76   38   39 2    
    77   38   40 1    
    78   40   41 1    
    79   40   42 1    
    80   40  102 1    
    81   41  103 1    
    82   41  104 1    
    83   41  105 1    
    84   42   43 am   BACKBONE|DICT|INTERRES
    85   42  106 1    
    86   43   44 2    
    87   43   45 1    
    88   45   46 1    
    89   45   49 1    
    90   45  107 1    
    91   46   47 1    
    92   46  108 1    
    93   46  109 1    
    94   47   48 1    
    95   48  110 1    
    96   48  111 1    
    97   49   50 am   BACKBONE|DICT|INTERRES
    98   49  112 1    
    99   50   51 2    
   100   50   52 1    
   101   52   53 1    
   102   52   54 1    
   103   52  113 1    
   104   53  114 1    
   105   53  115 1    
   106   53  116 1    
   107   54   55 am   BACKBONE|DICT|INTERRES
   108   54  117 1    
   109   55   56 2    
   110   55   57 1    
   111   57   58 1    
   112   57   59 1    
   113   57  118 1    
   114   58  119 1    
   115   58  120 1    
   116   58  121 1    
   117   59   60 am   BACKBONE|DICT|INTERRES
   118   59  122 1    
   119   60   61 2    
   120   60   62 1    
   121   62   63 1    
   122   62   64 1    
   123   62  123 1    
   124   63  124 1    
   125   63  125 1    
   126   63  126 1    
   127   64   65 am   BACKBONE|DICT|INTERRES
   128   64  127 1    
   129   65   66 2    
@<TRIPOS>SUBSTRUCTURE
     1 UNK         1 GROUP             0       ****    0 ROOT    
