@<TRIPOS>MOLECULE
3R135
127   129    1
SMALL
USER_CHARGES


@<TRIPOS>ATOM
      1 CA        -83.4655   24.8661  -72.7417 C.3       0 UNK        -0.1998 
      2 C         -82.8052   25.8039  -73.7401 C.2       0 UNK         0.4909 
      3 O         -83.1719   25.8005  -74.9161 O.2       0 UNK        -0.5240 
      4 N         -81.8288   26.6010  -73.2837 N.am      1 UNK        -0.4739 
      5 CA        -81.0409   27.5386  -74.0941 C.3       1 UNK         0.0864 
      6 C6        -79.9987   28.3016  -73.2439 C.3       11 UNK        -0.0881 
      7 S7        -80.7526   29.3615  -71.9600 S.3       11 UNK        -0.2682 
      8 C8        -80.0430   28.7019  -70.4084 C.3       11 UNK         0.0289 
      9 C9        -78.5276   28.5298  -70.4603 C.ar      11 UNK        -0.0687 
     10 C10       -77.9556   27.2974  -70.1277 C.ar      11 UNK        -0.0823 
     11 C11       -76.5778   27.0970  -70.2521 C.ar      11 UNK        -0.0830 
     12 C12       -75.7669   28.1459  -70.6956 C.ar      11 UNK        -0.1021 
     13 C13       -76.3247   29.3833  -71.0257 C.ar      11 UNK        -0.0753 
     14 C14       -77.7020   29.5763  -70.8863 C.ar      11 UNK        -0.0933 
     15 C15       -75.4470   30.4988  -71.5695 C.3       11 UNK         0.0166 
     16 S16       -75.6093   30.6264  -73.3780 S.3       11 UNK        -0.2615 
     17 C17       -74.3872   31.9346  -73.7429 C.3       11 UNK        -0.0865 
     18 CA        -73.3797   31.5492  -74.8679 C.3       10 UNK         0.0862 
     19 C         -72.4113   32.7189  -75.2210 C.2       10 UNK         0.5551 
     20 N         -71.1541   32.4581  -75.5584 N.am      10 UNK        -0.7319 
     21 O         -72.8114   33.8807  -75.2199 O.2       10 UNK        -0.5018 
     22 N         -72.7199   30.2463  -74.6612 N.am      10 UNK        -0.4509 
     23 C         -71.9693   29.8925  -73.6083 C.2       10 UNK         0.4899 
     24 O         -71.7096   30.6370  -72.6633 O.2       10 UNK        -0.4839 
     25 CA        -71.4018   28.4671  -73.6081 C.3       9 UNK         0.0222 
     26 CB        -72.4650   27.4644  -73.1293 C.3       9 UNK        -0.1966 
     27 N         -70.9257   28.0763  -74.9376 N.am      9 UNK        -0.4218 
     28 C         -69.6894   27.6391  -75.2163 C.2       9 UNK         0.5020 
     29 O         -68.7954   27.5409  -74.3731 O.2       9 UNK        -0.5274 
     30 CA        -69.3838   27.2624  -76.6838 C.3       8 UNK         0.0270 
     31 CB        -68.3244   26.1448  -76.8017 C.3       8 UNK        -0.1976 
     32 N         -70.5750   26.9415  -77.4827 N.am      8 UNK        -0.4313 
     33 C         -71.4458   25.9408  -77.2851 C.2       8 UNK         0.5041 
     34 O         -71.3467   25.0885  -76.4002 O.2       8 UNK        -0.5577 
     35 CA        -72.6752   25.9334  -78.2092 C.3       7 UNK         0.0284 
     36 CB        -72.9124   24.5389  -78.8136 C.3       7 UNK        -0.1958 
     37 N         -73.8857   26.3633  -77.5063 N.am      7 UNK        -0.4454 
     38 C         -74.0689   27.5274  -76.8714 C.2       7 UNK         0.5089 
     39 O         -73.2077   28.4043  -76.7730 O.2       7 UNK        -0.5125 
     40 CA        -75.4362   27.7511  -76.2065 C.3       6 UNK         0.0408 
     41 CB        -76.5514   27.9439  -77.2493 C.3       6 UNK        -0.1791 
     42 N         -75.7860   26.7356  -75.2057 N.am      6 UNK        -0.4762 
     43 C         -76.0347   25.4245  -75.3643 C.2       6 UNK         0.5007 
     44 O         -76.0403   24.8587  -76.4594 O.2       6 UNK        -0.5032 
     45 CA        -76.3095   24.6016  -74.0892 C.3       5 UNK         0.0783 
     46 C46       -76.1209   25.4222  -72.7817 C.3       11 UNK        -0.0857 
     47 S47       -76.4382   24.4968  -71.2412 S.3       11 UNK        -0.2512 
     48 C48       -75.9710   25.7273  -69.9750 C.3       11 UNK         0.0225 
     49 N         -77.6588   24.0523  -74.1986 N.am      5 UNK        -0.4615 
     50 C         -78.0008   22.7808  -73.9708 C.2       4 UNK         0.5053 
     51 O         -77.1908   21.8754  -73.7683 O.2       4 UNK        -0.5105 
     52 CA        -79.5018   22.4653  -73.9219 C.3       4 UNK         0.0263 
     53 CB        -80.1181   23.0097  -72.6205 C.3       4 UNK        -0.1981 
     54 N         -80.2276   23.0227  -75.0658 N.am      4 UNK        -0.4224 
     55 C         -80.9319   22.2957  -75.9467 C.2       3 UNK         0.4895 
     56 O         -80.9822   21.0649  -75.9278 O.2       3 UNK        -0.5091 
     57 CA        -81.7521   23.0412  -77.0181 C.3       3 UNK         0.0250 
     58 CB        -83.2583   22.8807  -76.7495 C.3       3 UNK        -0.1996 
     59 N         -81.4329   24.4676  -77.1046 N.am      3 UNK        -0.4254 
     60 C         -80.4032   24.9635  -77.8059 C.2       2 UNK         0.5004 
     61 O         -79.6672   24.2740  -78.5120 O.2       2 UNK        -0.5226 
     62 CA        -80.1244   26.4753  -77.6963 C.3       2 UNK         0.0269 
     63 CB        -80.6442   27.2136  -78.9401 C.3       2 UNK        -0.1926 
     64 N         -80.6654   27.1193  -76.4927 N.am      2 UNK        -0.4687 
     65 C         -80.3277   26.7948  -75.2379 C.2       1 UNK         0.5165 
     66 O         -79.5193   25.9083  -74.9596 O.2       1 UNK        -0.5079 
     67 H67       -83.4060   23.8383  -73.0984 H         1 UNK         0.0900 
     68 H68       -82.9902   24.9129  -71.7620 H         1 UNK         0.0900 
     69 H69       -84.5171   25.1255  -72.6238 H         1 UNK         0.0900 
     70 H70       -81.5770   26.5644  -72.3071 H         1 UNK         0.2959 
     71 H71       -81.7340   28.2635  -74.5262 H         1 UNK         0.1079 
     72 H72       -79.3899   28.9514  -73.8762 H         1 UNK         0.0837 
     73 H73       -79.3025   27.5939  -72.7911 H         1 UNK         0.0837 
     74 H74       -80.5310   27.7521  -70.1850 H         1 UNK         0.0685 
     75 H75       -80.2945   29.3776  -69.5900 H         1 UNK         0.0685 
     76 H76       -78.5841   26.4761  -69.8110 H         1 UNK         0.1434 
     77 H77       -74.7039   27.9909  -70.8109 H         1 UNK         0.1329 
     78 H78       -78.1379   30.5282  -71.1574 H         1 UNK         0.1335 
     79 H79       -75.7274   31.4479  -71.1103 H         1 UNK         0.0680 
     80 H80       -74.4014   30.3219  -71.3112 H         1 UNK         0.0680 
     81 H81       -74.9469   32.8267  -74.0295 H         1 UNK         0.1032 
     82 H82       -73.8499   32.2060  -72.8330 H         1 UNK         0.1032 
     83 H83       -73.9686   31.4095  -75.7751 H         1 UNK         0.0461 
     84 H84       -70.5367   33.2185  -75.7959 H         1 UNK         0.3453 
     85 H85       -70.8181   31.5090  -75.5694 H         1 UNK         0.3453 
     86 H86       -72.8759   29.5754  -75.4079 H         1 UNK         0.2984 
     87 H87       -70.5788   28.4504  -72.8907 H         1 UNK         0.0554 
     88 H88       -72.7876   27.6998  -72.1153 H         1 UNK         0.0847 
     89 H89       -72.0732   26.4471  -73.1170 H         1 UNK         0.0847 
     90 H90       -73.3486   27.4749  -73.7669 H         1 UNK         0.0847 
     91 H91       -71.5952   28.1339  -75.6988 H         1 UNK         0.3141 
     92 H92       -68.9581   28.1610  -77.1326 H         1 UNK         0.0743 
     93 H93       -67.3817   26.4468  -76.3437 H         1 UNK         0.0784 
     94 H94       -68.1129   25.9063  -77.8440 H         1 UNK         0.0784 
     95 H95       -68.6461   25.2284  -76.3061 H         1 UNK         0.0784 
     96 H96       -70.7860   27.6039  -78.2176 H         1 UNK         0.3213 
     97 H97       -72.5051   26.6311  -79.0319 H         1 UNK         0.0855 
     98 H98       -73.1502   23.8013  -78.0457 H         1 UNK         0.0814 
     99 H99       -72.0254   24.1861  -79.3415 H         1 UNK         0.0814 
    100 H100      -73.7332   24.5511  -79.5309 H         1 UNK         0.0814 
    101 H101      -74.6406   25.6857  -77.4339 H         1 UNK         0.3105 
    102 H102      -75.3582   28.6872  -75.6524 H         1 UNK         0.0547 
    103 H103      -77.4962   28.1974  -76.7688 H         1 UNK         0.0837 
    104 H104      -76.7054   27.0519  -77.8564 H         1 UNK         0.0837 
    105 H105      -76.3076   28.7596  -77.9311 H         1 UNK         0.0837 
    106 H106      -75.8168   27.0908  -74.2604 H         1 UNK         0.3020 
    107 H107      -75.5765   23.7918  -74.0917 H         1 UNK         0.1245 
    108 H108      -76.7995   26.2774  -72.7865 H         1 UNK         0.0781 
    109 H109      -75.1045   25.8160  -72.7205 H         1 UNK         0.0781 
    110 H110      -74.8827   25.7900  -69.9291 H         1 UNK         0.0836 
    111 H111      -76.2980   25.3743  -68.9960 H         1 UNK         0.0836 
    112 H112      -78.3818   24.7348  -74.4247 H         1 UNK         0.3022 
    113 H113      -79.5957   21.3775  -73.9007 H         1 UNK         0.0747 
    114 H114      -81.1570   22.6977  -72.5159 H         1 UNK         0.0793 
    115 H115      -79.5790   22.6385  -71.7476 H         1 UNK         0.0793 
    116 H116      -80.0882   24.0995  -72.5817 H         1 UNK         0.0793 
    117 H117      -80.1852   24.0293  -75.1813 H         1 UNK         0.3047 
    118 H118      -81.5333   22.5693  -77.9786 H         1 UNK         0.0822 
    119 H119      -83.8542   23.3873  -77.5088 H         1 UNK         0.0807 
    120 H120      -83.5419   23.2825  -75.7766 H         1 UNK         0.0807 
    121 H121      -83.5470   21.8288  -76.7617 H         1 UNK         0.0807 
    122 H122      -81.9945   25.0951  -76.5375 H         1 UNK         0.2946 
    123 H123      -79.0395   26.5792  -77.6647 H         1 UNK         0.1144 
    124 H124      -80.3519   28.2639  -78.9301 H         1 UNK         0.0793 
    125 H125      -81.7315   27.1660  -79.0119 H         1 UNK         0.0793 
    126 H126      -80.2378   26.7761  -79.8533 H         1 UNK         0.0793 
    127 H127      -81.3663   27.8316  -76.6412 H         1 UNK         0.2896 
@<TRIPOS>BOND
     1    1    2 1    
     2    1   67 1    
     3    1   68 1    
     4    1   69 1    
     5    2    3 2    
     6    2    4 am   BACKBONE|DICT|INTERRES
     7    4    5 1    
     8    4   70 1    
     9    5    6 1    
    10    5   65 1    
    11    5   71 1    
    12    6    7 1    
    13    6   72 1    
    14    6   73 1    
    15    7    8 1    
    16    8    9 1    
    17    8   74 1    
    18    8   75 1    
    19    9   10 ar   
    20    9   14 ar   
    21   10   11 ar   
    22   10   76 1    
    23   11   12 ar   
    24   11   48 1    
    25   12   13 ar   
    26   12   77 1    
    27   13   14 ar   
    28   13   15 1    
    29   14   78 1    
    30   15   16 1    
    31   15   79 1    
    32   15   80 1    
    33   16   17 1    
    34   17   18 1    
    35   17   81 1    
    36   17   82 1    
    37   18   19 1    
    38   18   22 1    
    39   18   83 1    
    40   19   20 am   BACKBONE|DICT|INTERRES
    41   19   21 2    
    42   20   84 1    
    43   20   85 1    
    44   22   23 am   BACKBONE|DICT|INTERRES
    45   22   86 1    
    46   23   24 2    
    47   23   25 1    
    48   25   26 1    
    49   25   27 1    
    50   25   87 1    
    51   26   88 1    
    52   26   89 1    
    53   26   90 1    
    54   27   28 am   BACKBONE|DICT|INTERRES
    55   27   91 1    
    56   28   29 2    
    57   28   30 1    
    58   30   31 1    
    59   30   32 1    
    60   30   92 1    
    61   31   93 1    
    62   31   94 1    
    63   31   95 1    
    64   32   33 am   BACKBONE|DICT|INTERRES
    65   32   96 1    
    66   33   34 2    
    67   33   35 1    
    68   35   36 1    
    69   35   37 1    
    70   35   97 1    
    71   36   98 1    
    72   36   99 1    
    73   36  100 1    
    74   37   38 am   BACKBONE|DICT|INTERRES
    75   37  101 1    
    76   38   39 2    
    77   38   40 1    
    78   40   41 1    
    79   40   42 1    
    80   40  102 1    
    81   41  103 1    
    82   41  104 1    
    83   41  105 1    
    84   42   43 am   BACKBONE|DICT|INTERRES
    85   42  106 1    
    86   43   44 2    
    87   43   45 1    
    88   45   46 1    
    89   45   49 1    
    90   45  107 1    
    91   46   47 1    
    92   46  108 1    
    93   46  109 1    
    94   47   48 1    
    95   48  110 1    
    96   48  111 1    
    97   49   50 am   BACKBONE|DICT|INTERRES
    98   49  112 1    
    99   50   51 2    
   100   50   52 1    
   101   52   53 1    
   102   52   54 1    
   103   52  113 1    
   104   53  114 1    
   105   53  115 1    
   106   53  116 1    
   107   54   55 am   BACKBONE|DICT|INTERRES
   108   54  117 1    
   109   55   56 2    
   110   55   57 1    
   111   57   58 1    
   112   57   59 1    
   113   57  118 1    
   114   58  119 1    
   115   58  120 1    
   116   58  121 1    
   117   59   60 am   BACKBONE|DICT|INTERRES
   118   59  122 1    
   119   60   61 2    
   120   60   62 1    
   121   62   63 1    
   122   62   64 1    
   123   62  123 1    
   124   63  124 1    
   125   63  125 1    
   126   63  126 1    
   127   64   65 am   BACKBONE|DICT|INTERRES
   128   64  127 1    
   129   65   66 2    
@<TRIPOS>SUBSTRUCTURE
     1 UNK         1 GROUP             0       ****    0 ROOT    
