@<TRIPOS>MOLECULE
3R135
127   129    1
SMALL
USER_CHARGES


@<TRIPOS>ATOM
      1 CA        -81.5011   29.2839  -76.7901 C.3       0 UNK        -0.1998 
      2 C         -81.7506   28.3213  -75.6383 C.2       0 UNK         0.4909 
      3 O         -82.9048   28.0291  -75.3232 O.2       0 UNK        -0.5240 
      4 N         -80.6713   27.8401  -75.0109 N.am      1 UNK        -0.4739 
      5 CA        -80.6312   26.8319  -73.9495 C.3       1 UNK         0.0864 
      6 C6        -81.4966   27.1747  -72.7051 C.3       11 UNK        -0.0881 
      7 S7        -80.6409   26.7478  -71.1465 S.3       11 UNK        -0.2682 
      8 C8        -80.3907   28.3826  -70.3792 C.3       11 UNK         0.0289 
      9 C9        -79.0947   29.0643  -70.8093 C.ar      11 UNK        -0.0687 
     10 C10       -78.9692   29.6237  -72.0851 C.ar      11 UNK        -0.0823 
     11 C11       -77.8181   30.3322  -72.4483 C.ar      11 UNK        -0.0830 
     12 C12       -76.7936   30.4946  -71.5073 C.ar      11 UNK        -0.1021 
     13 C13       -76.8946   29.9278  -70.2321 C.ar      11 UNK        -0.0753 
     14 C14       -78.0441   29.2051  -69.8962 C.ar      11 UNK        -0.0933 
     15 C15       -75.8092   30.1556  -69.1815 C.3       11 UNK         0.0166 
     16 S16       -74.1109   29.8956  -69.7936 S.3       11 UNK        -0.2615 
     17 C17       -74.0948   28.0895  -70.0484 C.3       11 UNK        -0.0865 
     18 CA        -72.9595   27.6184  -70.9978 C.3       10 UNK         0.0862 
     19 C         -72.9734   26.0676  -71.1589 C.2       10 UNK         0.5551 
     20 N         -73.0660   25.5125  -72.3625 N.am      10 UNK        -0.7319 
     21 O         -72.8931   25.3514  -70.1640 O.2       10 UNK        -0.5018 
     22 N         -72.9455   28.3649  -72.2675 N.am      10 UNK        -0.4509 
     23 C         -71.8774   28.4798  -73.0641 C.2       10 UNK         0.4899 
     24 O         -70.7571   28.0416  -72.7952 O.2       10 UNK        -0.4839 
     25 CA        -72.1077   29.1852  -74.4108 C.3       9 UNK         0.0222 
     26 CB        -71.3372   30.5133  -74.4762 C.3       9 UNK        -0.1966 
     27 N         -71.7185   28.3310  -75.5386 N.am      9 UNK        -0.4218 
     28 C         -72.2651   27.1389  -75.8077 C.2       9 UNK         0.5020 
     29 O         -73.1828   26.6440  -75.1455 O.2       9 UNK        -0.5274 
     30 CA        -71.7152   26.3684  -77.0098 C.3       8 UNK         0.0270 
     31 CB        -70.5070   25.5084  -76.5938 C.3       8 UNK        -0.1976 
     32 N         -72.7937   25.5268  -77.5208 N.am      8 UNK        -0.4313 
     33 C         -72.8378   24.9265  -78.7148 C.2       8 UNK         0.5041 
     34 O         -71.9395   24.9939  -79.5549 O.2       8 UNK        -0.5577 
     35 CA        -74.1141   24.1320  -79.0283 C.3       7 UNK         0.0284 
     36 CB        -74.2167   22.8730  -78.1496 C.3       7 UNK        -0.1958 
     37 N         -75.3032   24.9649  -78.8446 N.am      7 UNK        -0.4454 
     38 C         -75.7858   25.8063  -79.7691 C.2       7 UNK         0.5089 
     39 O         -75.3307   25.9128  -80.9086 O.2       7 UNK        -0.5125 
     40 CA        -76.9637   26.6981  -79.3418 C.3       6 UNK         0.0408 
     41 CB        -78.2614   25.8849  -79.1990 C.3       6 UNK        -0.1791 
     42 N         -76.6837   27.4065  -78.0930 N.am      6 UNK        -0.4762 
     43 C         -75.7941   28.3992  -77.9491 C.2       6 UNK         0.5007 
     44 O         -75.1533   28.8761  -78.8860 O.2       6 UNK        -0.5032 
     45 CA        -75.5470   28.9427  -76.5262 C.3       5 UNK         0.0783 
     46 C46       -76.4086   30.2002  -76.2400 C.3       11 UNK        -0.0857 
     47 S47       -76.0739   30.9113  -74.5891 S.3       11 UNK        -0.2512 
     48 C48       -77.7387   30.9757  -73.8319 C.3       11 UNK         0.0225 
     49 N         -75.6204   27.8958  -75.4973 N.am      5 UNK        -0.4615 
     50 C         -76.7057   27.2953  -75.0072 C.2       4 UNK         0.5053 
     51 O         -77.8553   27.5637  -75.3575 O.2       4 UNK        -0.5105 
     52 CA        -76.4475   26.1714  -73.9894 C.3       4 UNK         0.0263 
     53 CB        -76.6873   26.6689  -72.5575 C.3       4 UNK        -0.1981 
     54 N         -77.2482   24.9722  -74.2458 N.am      4 UNK        -0.4224 
     55 C         -77.2461   24.2819  -75.3962 C.2       3 UNK         0.4895 
     56 O         -76.5378   24.5765  -76.3610 O.2       3 UNK        -0.5091 
     57 CA        -78.1759   23.0576  -75.4834 C.3       3 UNK         0.0250 
     58 CB        -77.6357   21.9989  -76.4631 C.3       3 UNK        -0.1996 
     59 N         -78.3627   22.4333  -74.1668 N.am      3 UNK        -0.4254 
     60 C         -79.4686   22.3505  -73.4106 C.2       2 UNK         0.5004 
     61 O         -79.4322   21.8156  -72.3033 O.2       2 UNK        -0.5226 
     62 CA        -80.7898   22.9887  -73.8810 C.3       2 UNK         0.0269 
     63 CB        -82.0158   22.3969  -73.1582 C.3       2 UNK        -0.1926 
     64 N         -80.7281   24.4195  -73.5908 N.am      2 UNK        -0.4687 
     65 C         -80.8524   25.4020  -74.4888 C.2       1 UNK         0.5165 
     66 O         -81.0804   25.2021  -75.6847 O.2       1 UNK        -0.5079 
     67 H67       -81.9323   28.8878  -77.7091 H         1 UNK         0.0900 
     68 H68       -81.9655   30.2474  -76.5819 H         1 UNK         0.0900 
     69 H69       -80.4368   29.4488  -76.9592 H         1 UNK         0.0900 
     70 H70       -79.7455   28.0667  -75.3647 H         1 UNK         0.2959 
     71 H71       -79.5890   26.8496  -73.6389 H         1 UNK         0.1079 
     72 H72       -82.4623   26.6659  -72.7371 H         1 UNK         0.0837 
     73 H73       -81.7413   28.2370  -72.6911 H         1 UNK         0.0837 
     74 H74       -81.2390   29.0346  -70.5917 H         1 UNK         0.0685 
     75 H75       -80.3951   28.2441  -69.2969 H         1 UNK         0.0685 
     76 H76       -79.7831   29.5310  -72.7897 H         1 UNK         0.1434 
     77 H77       -75.9188   31.0772  -71.7606 H         1 UNK         0.1329 
     78 H78       -78.1408   28.7876  -68.9031 H         1 UNK         0.1335 
     79 H79       -75.8923   31.1820  -68.8212 H         1 UNK         0.0680 
     80 H80       -75.9673   29.5124  -68.3139 H         1 UNK         0.0680 
     81 H81       -73.9889   27.6174  -69.0697 H         1 UNK         0.1032 
     82 H82       -75.0667   27.7736  -70.4252 H         1 UNK         0.1032 
     83 H83       -72.0194   27.8442  -70.4903 H         1 UNK         0.0461 
     84 H84       -73.0661   24.5083  -72.4355 H         1 UNK         0.3453 
     85 H85       -73.0984   26.0759  -73.2035 H         1 UNK         0.3453 
     86 H86       -73.8245   28.7696  -72.5528 H         1 UNK         0.2984 
     87 H87       -73.1709   29.4106  -74.5117 H         1 UNK         0.0554 
     88 H88       -71.6247   31.1699  -73.6537 H         1 UNK         0.0847 
     89 H89       -71.5442   31.0490  -75.4028 H         1 UNK         0.0847 
     90 H90       -70.2592   30.3600  -74.4083 H         1 UNK         0.0847 
     91 H91       -70.9459   28.6525  -76.1043 H         1 UNK         0.3141 
     92 H92       -71.4206   27.0788  -77.7850 H         1 UNK         0.0743 
     93 H93       -70.7800   24.7756  -75.8331 H         1 UNK         0.0784 
     94 H94       -70.0882   24.9682  -77.4429 H         1 UNK         0.0784 
     95 H95       -69.7087   26.1262  -76.1804 H         1 UNK         0.0784 
     96 H96       -73.5761   25.4361  -76.8833 H         1 UNK         0.3213 
     97 H97       -74.0609   23.8069  -80.0699 H         1 UNK         0.0855 
     98 H98       -74.3016   23.1164  -77.0899 H         1 UNK         0.0814 
     99 H99       -73.3357   22.2413  -78.2702 H         1 UNK         0.0814 
    100 H100      -75.0847   22.2731  -78.4227 H         1 UNK         0.0814 
    101 H101      -75.7605   24.9209  -77.9335 H         1 UNK         0.3105 
    102 H102      -77.1211   27.4436  -80.1242 H         1 UNK         0.0547 
    103 H103      -79.1087   26.5295  -78.9648 H         1 UNK         0.0837 
    104 H104      -78.1907   25.1317  -78.4141 H         1 UNK         0.0837 
    105 H105      -78.4978   25.3645  -80.1279 H         1 UNK         0.0837 
    106 H106      -77.1711   27.0916  -77.2613 H         1 UNK         0.3020 
    107 H107      -74.5062   29.2694  -76.5237 H         1 UNK         0.1245 
    108 H108      -77.4684   29.9716  -76.3574 H         1 UNK         0.0781 
    109 H109      -76.1930   30.9760  -76.9776 H         1 UNK         0.0781 
    110 H110      -78.4701   30.5075  -74.4919 H         1 UNK         0.0836 
    111 H111      -78.0377   32.0214  -73.7451 H         1 UNK         0.0836 
    112 H112      -74.7177   27.5154  -75.2173 H         1 UNK         0.3022 
    113 H113      -75.4026   25.8693  -74.0673 H         1 UNK         0.0747 
    114 H114      -76.3023   25.9625  -71.8221 H         1 UNK         0.0793 
    115 H115      -76.1829   27.6214  -72.3944 H         1 UNK         0.0793 
    116 H116      -77.7423   26.8314  -72.3452 H         1 UNK         0.0793 
    117 H117      -77.8352   24.6467  -73.4935 H         1 UNK         0.3047 
    118 H118      -79.1113   23.4272  -75.8969 H         1 UNK         0.0822 
    119 H119      -78.3014   21.1378  -76.5232 H         1 UNK         0.0807 
    120 H120      -76.6491   21.6404  -76.1667 H         1 UNK         0.0807 
    121 H121      -77.5462   22.4047  -77.4720 H         1 UNK         0.0807 
    122 H122      -77.5221   22.0270  -73.7803 H         1 UNK         0.2946 
    123 H123      -80.9255   22.7883  -74.9448 H         1 UNK         0.1144 
    124 H124      -82.0743   21.3181  -73.3086 H         1 UNK         0.0793 
    125 H125      -82.9421   22.8274  -73.5393 H         1 UNK         0.0793 
    126 H126      -81.9845   22.5771  -72.0828 H         1 UNK         0.0793 
    127 H127      -80.5406   24.6677  -72.6269 H         1 UNK         0.2896 
@<TRIPOS>BOND
     1    1    2 1    
     2    1   67 1    
     3    1   68 1    
     4    1   69 1    
     5    2    3 2    
     6    2    4 am   BACKBONE|DICT|INTERRES
     7    4    5 1    
     8    4   70 1    
     9    5    6 1    
    10    5   65 1    
    11    5   71 1    
    12    6    7 1    
    13    6   72 1    
    14    6   73 1    
    15    7    8 1    
    16    8    9 1    
    17    8   74 1    
    18    8   75 1    
    19    9   10 ar   
    20    9   14 ar   
    21   10   11 ar   
    22   10   76 1    
    23   11   12 ar   
    24   11   48 1    
    25   12   13 ar   
    26   12   77 1    
    27   13   14 ar   
    28   13   15 1    
    29   14   78 1    
    30   15   16 1    
    31   15   79 1    
    32   15   80 1    
    33   16   17 1    
    34   17   18 1    
    35   17   81 1    
    36   17   82 1    
    37   18   19 1    
    38   18   22 1    
    39   18   83 1    
    40   19   20 am   BACKBONE|DICT|INTERRES
    41   19   21 2    
    42   20   84 1    
    43   20   85 1    
    44   22   23 am   BACKBONE|DICT|INTERRES
    45   22   86 1    
    46   23   24 2    
    47   23   25 1    
    48   25   26 1    
    49   25   27 1    
    50   25   87 1    
    51   26   88 1    
    52   26   89 1    
    53   26   90 1    
    54   27   28 am   BACKBONE|DICT|INTERRES
    55   27   91 1    
    56   28   29 2    
    57   28   30 1    
    58   30   31 1    
    59   30   32 1    
    60   30   92 1    
    61   31   93 1    
    62   31   94 1    
    63   31   95 1    
    64   32   33 am   BACKBONE|DICT|INTERRES
    65   32   96 1    
    66   33   34 2    
    67   33   35 1    
    68   35   36 1    
    69   35   37 1    
    70   35   97 1    
    71   36   98 1    
    72   36   99 1    
    73   36  100 1    
    74   37   38 am   BACKBONE|DICT|INTERRES
    75   37  101 1    
    76   38   39 2    
    77   38   40 1    
    78   40   41 1    
    79   40   42 1    
    80   40  102 1    
    81   41  103 1    
    82   41  104 1    
    83   41  105 1    
    84   42   43 am   BACKBONE|DICT|INTERRES
    85   42  106 1    
    86   43   44 2    
    87   43   45 1    
    88   45   46 1    
    89   45   49 1    
    90   45  107 1    
    91   46   47 1    
    92   46  108 1    
    93   46  109 1    
    94   47   48 1    
    95   48  110 1    
    96   48  111 1    
    97   49   50 am   BACKBONE|DICT|INTERRES
    98   49  112 1    
    99   50   51 2    
   100   50   52 1    
   101   52   53 1    
   102   52   54 1    
   103   52  113 1    
   104   53  114 1    
   105   53  115 1    
   106   53  116 1    
   107   54   55 am   BACKBONE|DICT|INTERRES
   108   54  117 1    
   109   55   56 2    
   110   55   57 1    
   111   57   58 1    
   112   57   59 1    
   113   57  118 1    
   114   58  119 1    
   115   58  120 1    
   116   58  121 1    
   117   59   60 am   BACKBONE|DICT|INTERRES
   118   59  122 1    
   119   60   61 2    
   120   60   62 1    
   121   62   63 1    
   122   62   64 1    
   123   62  123 1    
   124   63  124 1    
   125   63  125 1    
   126   63  126 1    
   127   64   65 am   BACKBONE|DICT|INTERRES
   128   64  127 1    
   129   65   66 2    
@<TRIPOS>SUBSTRUCTURE
     1 UNK         1 GROUP             0       ****    0 ROOT    
