@<TRIPOS>MOLECULE
3R135
127   129    1
SMALL
USER_CHARGES


@<TRIPOS>ATOM
      1 CA        -83.1967   27.3144  -71.7095 C.3       0 UNK        -0.1998 
      2 C         -82.3525   27.1725  -72.9659 C.2       0 UNK         0.4909 
      3 O         -81.6409   26.1801  -73.1128 O.2       0 UNK        -0.5240 
      4 N         -82.4396   28.1488  -73.8823 N.am      1 UNK        -0.4739 
      5 CA        -81.6607   28.2630  -75.1304 C.3       1 UNK         0.0864 
      6 C6        -80.1431   28.4997  -74.8719 C.3       11 UNK        -0.0881 
      7 S7        -79.7939   30.1598  -74.1984 S.3       11 UNK        -0.2682 
      8 C8        -79.7554   29.8897  -72.3988 C.3       11 UNK         0.0289 
      9 C9        -78.5196   29.1347  -71.9293 C.ar      11 UNK        -0.0687 
     10 C10       -78.6180   27.7943  -71.5449 C.ar      11 UNK        -0.0823 
     11 C11       -77.5097   27.1214  -71.0227 C.ar      11 UNK        -0.0830 
     12 C12       -76.2912   27.7946  -70.8970 C.ar      11 UNK        -0.1021 
     13 C13       -76.1774   29.1339  -71.2832 C.ar      11 UNK        -0.0753 
     14 C14       -77.2934   29.7968  -71.8053 C.ar      11 UNK        -0.0933 
     15 C15       -74.8688   29.8797  -71.0651 C.3       11 UNK         0.0166 
     16 S16       -73.5613   29.3361  -72.2076 S.3       11 UNK        -0.2615 
     17 C17       -72.1480   30.3047  -71.5731 C.3       11 UNK        -0.0865 
     18 CA        -71.6805   31.3976  -72.5675 C.3       10 UNK         0.0862 
     19 C         -70.6650   32.3555  -71.8852 C.2       10 UNK         0.5551 
     20 N         -71.1365   33.4568  -71.3175 N.am      10 UNK        -0.7319 
     21 O         -69.4666   32.0850  -71.8276 O.2       10 UNK        -0.5018 
     22 N         -71.1399   30.7968  -73.7944 N.am      10 UNK        -0.4509 
     23 C         -70.8260   31.4625  -74.9130 C.2       10 UNK         0.4899 
     24 O         -71.0370   32.6651  -75.0751 O.2       10 UNK        -0.4839 
     25 CA        -70.1522   30.6650  -76.0482 C.3       9 UNK         0.0222 
     26 CB        -68.6689   31.0547  -76.1656 C.3       9 UNK        -0.1966 
     27 N         -70.2511   29.2081  -75.8980 N.am      9 UNK        -0.4218 
     28 C         -71.3709   28.4973  -76.0842 C.2       9 UNK         0.5020 
     29 O         -72.4512   28.9947  -76.4094 O.2       9 UNK        -0.5274 
     30 CA        -71.2586   26.9867  -75.8181 C.3       8 UNK         0.0270 
     31 CB        -71.3364   26.6968  -74.3094 C.3       8 UNK        -0.1976 
     32 N         -72.3187   26.2477  -76.5059 N.am      8 UNK        -0.4313 
     33 C         -72.2934   25.9361  -77.8107 C.2       8 UNK         0.5041 
     34 O         -71.3294   26.1671  -78.5432 O.2       8 UNK        -0.5577 
     35 CA        -73.5272   25.2355  -78.4150 C.3       7 UNK         0.0284 
     36 CB        -73.2482   23.7370  -78.6148 C.3       7 UNK        -0.1958 
     37 N         -74.7417   25.3916  -77.6133 N.am      7 UNK        -0.4454 
     38 C         -75.4299   26.5365  -77.4854 C.2       7 UNK         0.5089 
     39 O         -75.1794   27.5550  -78.1298 O.2       7 UNK        -0.5125 
     40 CA        -76.5955   26.5591  -76.4755 C.3       6 UNK         0.0408 
     41 CB        -77.9269   26.4770  -77.2325 C.3       6 UNK        -0.1791 
     42 N         -76.5567   25.4868  -75.4742 N.am      6 UNK        -0.4762 
     43 C         -75.5614   25.2708  -74.5981 C.2       6 UNK         0.5007 
     44 O         -74.5799   26.0062  -74.5021 O.2       6 UNK        -0.5032 
     45 CA        -75.6032   23.9762  -73.7544 C.3       5 UNK         0.0783 
     46 C46       -75.9148   24.2609  -72.2633 C.3       11 UNK        -0.0857 
     47 S47       -77.6912   24.5076  -71.9226 S.3       11 UNK        -0.2512 
     48 C48       -77.6540   25.6861  -70.5416 C.3       11 UNK         0.0225 
     49 N         -76.4762   22.9347  -74.3099 N.am      5 UNK        -0.4615 
     50 C         -76.3474   22.3574  -75.5108 C.2       4 UNK         0.5053 
     51 O         -75.4025   22.5752  -76.2698 O.2       4 UNK        -0.5105 
     52 CA        -77.4829   21.4204  -75.9661 C.3       4 UNK         0.0263 
     53 CB        -77.0779   19.9531  -75.7533 C.3       4 UNK        -0.1981 
     54 N         -78.7888   21.6580  -75.3299 N.am      4 UNK        -0.4224 
     55 C         -79.4847   22.8047  -75.3708 C.2       3 UNK         0.4895 
     56 O         -79.0587   23.8426  -75.8793 O.2       3 UNK        -0.5091 
     57 CA        -80.8681   22.7841  -74.6966 C.3       3 UNK         0.0250 
     58 CB        -80.7410   22.8860  -73.1689 C.3       3 UNK        -0.1996 
     59 N         -81.7293   23.8709  -75.1700 N.am      3 UNK        -0.4254 
     60 C         -82.3703   23.8692  -76.3485 C.2       2 UNK         0.5004 
     61 O         -82.3207   22.9315  -77.1465 O.2       2 UNK        -0.5226 
     62 CA        -83.2447   25.0895  -76.6966 C.3       2 UNK         0.0269 
     63 CB        -84.7334   24.7516  -76.5100 C.3       2 UNK        -0.1926 
     64 N         -82.9274   26.2743  -75.8970 N.am      2 UNK        -0.4687 
     65 C         -81.9174   27.1191  -76.1472 C.2       1 UNK         0.5165 
     66 O         -81.2244   27.0406  -77.1617 O.2       1 UNK        -0.5079 
     67 H67       -83.8806   26.4710  -71.6201 H         1 UNK         0.0900 
     68 H68       -83.7853   28.2316  -71.7141 H         1 UNK         0.0900 
     69 H69       -82.5549   27.3274  -70.8290 H         1 UNK         0.0900 
     70 H70       -83.0689   28.9211  -73.7094 H         1 UNK         0.2959 
     71 H71       -82.0452   29.1507  -75.6355 H         1 UNK         0.1079 
     72 H72       -79.7178   27.7253  -74.2321 H         1 UNK         0.0837 
     73 H73       -79.5817   28.4539  -75.8052 H         1 UNK         0.0837 
     74 H74       -80.6644   29.3797  -72.0820 H         1 UNK         0.0685 
     75 H75       -79.7796   30.8636  -71.9078 H         1 UNK         0.0685 
     76 H76       -79.5639   27.2765  -71.6289 H         1 UNK         0.1434 
     77 H77       -75.4330   27.2860  -70.4792 H         1 UNK         0.1329 
     78 H78       -77.2194   30.8381  -72.0878 H         1 UNK         0.1335 
     79 H79       -75.0144   30.9553  -71.1781 H         1 UNK         0.0680 
     80 H80       -74.5402   29.7183  -70.0372 H         1 UNK         0.0680 
     81 H81       -72.4247   30.7533  -70.6168 H         1 UNK         0.1032 
     82 H82       -71.3302   29.6176  -71.3474 H         1 UNK         0.1032 
     83 H83       -72.5527   31.9882  -72.8563 H         1 UNK         0.0461 
     84 H84       -72.1184   33.6832  -71.3531 H         1 UNK         0.3453 
     85 H85       -70.4955   34.0830  -70.8554 H         1 UNK         0.3453 
     86 H86       -70.9340   29.8114  -73.7508 H         1 UNK         0.2984 
     87 H87       -70.6499   30.9447  -76.9792 H         1 UNK         0.0554 
     88 H88       -68.1910   30.5568  -77.0096 H         1 UNK         0.0847 
     89 H89       -68.1112   30.8008  -75.2631 H         1 UNK         0.0847 
     90 H90       -68.5584   32.1287  -76.3230 H         1 UNK         0.0847 
     91 H91       -69.4070   28.7236  -75.6261 H         1 UNK         0.3141 
     92 H92       -70.2919   26.6366  -76.1871 H         1 UNK         0.0743 
     93 H93       -70.4993   27.1490  -73.7765 H         1 UNK         0.0784 
     94 H94       -72.2520   27.0935  -73.8695 H         1 UNK         0.0784 
     95 H95       -71.3064   25.6259  -74.1077 H         1 UNK         0.0784 
     96 H96       -73.1718   26.0963  -75.9767 H         1 UNK         0.3213 
     97 H97       -73.7076   25.6828  -79.3949 H         1 UNK         0.0855 
     98 H98       -72.3772   23.5832  -79.2533 H         1 UNK         0.0814 
     99 H99       -74.0910   23.2349  -79.0904 H         1 UNK         0.0814 
    100 H100      -73.0506   23.2343  -77.6671 H         1 UNK         0.0814 
    101 H101      -75.0344   24.5870  -77.0699 H         1 UNK         0.3105 
    102 H102      -76.5562   27.5090  -75.9385 H         1 UNK         0.0547 
    103 H103      -77.9779   25.5899  -77.8652 H         1 UNK         0.0837 
    104 H104      -78.7670   26.4311  -76.5426 H         1 UNK         0.0837 
    105 H105      -78.0729   27.3475  -77.8731 H         1 UNK         0.0837 
    106 H106      -77.3340   24.8319  -75.4953 H         1 UNK         0.3020 
    107 H107      -74.5868   23.5779  -73.7984 H         1 UNK         0.1245 
    108 H108      -75.3418   25.1180  -71.9040 H         1 UNK         0.0781 
    109 H109      -75.5838   23.4151  -71.6587 H         1 UNK         0.0781 
    110 H110      -76.8541   25.4200  -69.8487 H         1 UNK         0.0836 
    111 H111      -78.5837   25.5901  -69.9786 H         1 UNK         0.0836 
    112 H112      -77.2971   22.7227  -73.7617 H         1 UNK         0.3022 
    113 H113      -77.6146   21.5851  -77.0375 H         1 UNK         0.0747 
    114 H114      -77.8152   19.2708  -76.1769 H         1 UNK         0.0793 
    115 H115      -76.1247   19.7363  -76.2383 H         1 UNK         0.0793 
    116 H116      -76.9661   19.7148  -74.6948 H         1 UNK         0.0793 
    117 H117      -79.2081   20.8616  -74.8712 H         1 UNK         0.3047 
    118 H118      -81.3470   21.8326  -74.9385 H         1 UNK         0.0822 
    119 H119      -80.0841   22.1142  -72.7663 H         1 UNK         0.0807 
    120 H120      -81.7106   22.7708  -72.6843 H         1 UNK         0.0807 
    121 H121      -80.3366   23.8518  -72.8676 H         1 UNK         0.0807 
    122 H122      -81.7713   24.6996  -74.5857 H         1 UNK         0.2946 
    123 H123      -83.0757   25.3167  -77.7520 H         1 UNK         0.1144 
    124 H124      -85.0175   23.8900  -77.1160 H         1 UNK         0.0793 
    125 H125      -85.3702   25.5827  -76.8140 H         1 UNK         0.0793 
    126 H126      -84.9663   24.5108  -75.4719 H         1 UNK         0.0793 
    127 H127      -83.4542   26.4096  -75.0462 H         1 UNK         0.2896 
@<TRIPOS>BOND
     1    1    2 1    
     2    1   67 1    
     3    1   68 1    
     4    1   69 1    
     5    2    3 2    
     6    2    4 am   BACKBONE|DICT|INTERRES
     7    4    5 1    
     8    4   70 1    
     9    5    6 1    
    10    5   65 1    
    11    5   71 1    
    12    6    7 1    
    13    6   72 1    
    14    6   73 1    
    15    7    8 1    
    16    8    9 1    
    17    8   74 1    
    18    8   75 1    
    19    9   10 ar   
    20    9   14 ar   
    21   10   11 ar   
    22   10   76 1    
    23   11   12 ar   
    24   11   48 1    
    25   12   13 ar   
    26   12   77 1    
    27   13   14 ar   
    28   13   15 1    
    29   14   78 1    
    30   15   16 1    
    31   15   79 1    
    32   15   80 1    
    33   16   17 1    
    34   17   18 1    
    35   17   81 1    
    36   17   82 1    
    37   18   19 1    
    38   18   22 1    
    39   18   83 1    
    40   19   20 am   BACKBONE|DICT|INTERRES
    41   19   21 2    
    42   20   84 1    
    43   20   85 1    
    44   22   23 am   BACKBONE|DICT|INTERRES
    45   22   86 1    
    46   23   24 2    
    47   23   25 1    
    48   25   26 1    
    49   25   27 1    
    50   25   87 1    
    51   26   88 1    
    52   26   89 1    
    53   26   90 1    
    54   27   28 am   BACKBONE|DICT|INTERRES
    55   27   91 1    
    56   28   29 2    
    57   28   30 1    
    58   30   31 1    
    59   30   32 1    
    60   30   92 1    
    61   31   93 1    
    62   31   94 1    
    63   31   95 1    
    64   32   33 am   BACKBONE|DICT|INTERRES
    65   32   96 1    
    66   33   34 2    
    67   33   35 1    
    68   35   36 1    
    69   35   37 1    
    70   35   97 1    
    71   36   98 1    
    72   36   99 1    
    73   36  100 1    
    74   37   38 am   BACKBONE|DICT|INTERRES
    75   37  101 1    
    76   38   39 2    
    77   38   40 1    
    78   40   41 1    
    79   40   42 1    
    80   40  102 1    
    81   41  103 1    
    82   41  104 1    
    83   41  105 1    
    84   42   43 am   BACKBONE|DICT|INTERRES
    85   42  106 1    
    86   43   44 2    
    87   43   45 1    
    88   45   46 1    
    89   45   49 1    
    90   45  107 1    
    91   46   47 1    
    92   46  108 1    
    93   46  109 1    
    94   47   48 1    
    95   48  110 1    
    96   48  111 1    
    97   49   50 am   BACKBONE|DICT|INTERRES
    98   49  112 1    
    99   50   51 2    
   100   50   52 1    
   101   52   53 1    
   102   52   54 1    
   103   52  113 1    
   104   53  114 1    
   105   53  115 1    
   106   53  116 1    
   107   54   55 am   BACKBONE|DICT|INTERRES
   108   54  117 1    
   109   55   56 2    
   110   55   57 1    
   111   57   58 1    
   112   57   59 1    
   113   57  118 1    
   114   58  119 1    
   115   58  120 1    
   116   58  121 1    
   117   59   60 am   BACKBONE|DICT|INTERRES
   118   59  122 1    
   119   60   61 2    
   120   60   62 1    
   121   62   63 1    
   122   62   64 1    
   123   62  123 1    
   124   63  124 1    
   125   63  125 1    
   126   63  126 1    
   127   64   65 am   BACKBONE|DICT|INTERRES
   128   64  127 1    
   129   65   66 2    
@<TRIPOS>SUBSTRUCTURE
     1 UNK         1 GROUP             0       ****    0 ROOT    
