@<TRIPOS>MOLECULE
3R135
127   129    1
SMALL
USER_CHARGES


@<TRIPOS>ATOM
      1 CA        -79.0936   27.7434  -70.2060 C.3       0 UNK        -0.1998 
      2 C         -80.2539   27.9802  -71.1587 C.2       0 UNK         0.4909 
      3 O         -81.4138   27.9017  -70.7522 O.2       0 UNK        -0.5240 
      4 N         -79.9444   28.2688  -72.4286 N.am      1 UNK        -0.4739 
      5 CA        -80.9235   28.5229  -73.4955 C.3       1 UNK         0.0864 
      6 C6        -80.2943   29.2625  -74.7024 C.3       11 UNK        -0.0881 
      7 S7        -79.6261   30.9017  -74.2472 S.3       11 UNK        -0.2682 
      8 C8        -77.8502   30.7206  -74.6043 C.3       11 UNK         0.0289 
      9 C9        -77.1375   29.8983  -73.5392 C.ar      11 UNK        -0.0687 
     10 C10       -76.9712   28.5198  -73.7051 C.ar      11 UNK        -0.0823 
     11 C11       -76.3667   27.7473  -72.7059 C.ar      11 UNK        -0.0830 
     12 C12       -75.8888   28.3826  -71.5572 C.ar      11 UNK        -0.1021 
     13 C13       -76.0198   29.7640  -71.3878 C.ar      11 UNK        -0.0753 
     14 C14       -76.6537   30.5164  -72.3811 C.ar      11 UNK        -0.0933 
     15 C15       -75.5317   30.4231  -70.1028 C.3       11 UNK         0.0166 
     16 S16       -73.7798   30.0455  -69.7503 S.3       11 UNK        -0.2615 
     17 C17       -72.9483   31.6612  -69.9547 C.3       11 UNK        -0.0865 
     18 CA        -72.2025   31.8467  -71.3025 C.3       10 UNK         0.0862 
     19 C         -70.9848   30.8929  -71.4655 C.2       10 UNK         0.5551 
     20 N         -69.9036   31.1469  -70.7403 N.am      10 UNK        -0.7319 
     21 O         -71.0124   29.9215  -72.2192 O.2       10 UNK        -0.5018 
     22 N         -73.1329   31.7922  -72.4354 N.am      10 UNK        -0.4509 
     23 C         -72.9302   32.3932  -73.6129 C.2       10 UNK         0.4899 
     24 O         -71.9503   33.0948  -73.8712 O.2       10 UNK        -0.4839 
     25 CA        -74.0346   32.1807  -74.6607 C.3       9 UNK         0.0222 
     26 CB        -73.8317   33.0147  -75.9444 C.3       9 UNK        -0.1966 
     27 N         -74.2334   30.7616  -74.9718 N.am      9 UNK        -0.4218 
     28 C         -73.3787   29.9239  -75.5760 C.2       9 UNK         0.5020 
     29 O         -72.2475   30.2243  -75.9667 O.2       9 UNK        -0.5274 
     30 CA        -73.9255   28.5158  -75.8340 C.3       8 UNK         0.0270 
     31 CB        -75.0592   28.5557  -76.8796 C.3       8 UNK        -0.1976 
     32 N         -72.8682   27.6396  -76.3319 N.am      8 UNK        -0.4313 
     33 C         -72.8136   26.3257  -76.1043 C.2       8 UNK         0.5041 
     34 O         -73.5571   25.7300  -75.3191 O.2       8 UNK        -0.5577 
     35 CA        -71.7926   25.5151  -76.9113 C.3       7 UNK         0.0284 
     36 CB        -70.5702   25.1551  -76.0519 C.3       7 UNK        -0.1958 
     37 N         -72.4906   24.2964  -77.3075 N.am      7 UNK        -0.4454 
     38 C         -72.9342   24.0233  -78.5397 C.2       7 UNK         0.5089 
     39 O         -72.5420   24.5903  -79.5601 O.2       7 UNK        -0.5125 
     40 CA        -74.0557   22.9704  -78.6330 C.3       6 UNK         0.0408 
     41 CB        -73.4675   21.5560  -78.7527 C.3       6 UNK        -0.1791 
     42 N         -74.9681   23.0279  -77.4834 N.am      6 UNK        -0.4762 
     43 C         -75.7981   24.0458  -77.2073 C.2       6 UNK         0.5007 
     44 O         -75.9997   24.9842  -77.9802 O.2       6 UNK        -0.5032 
     45 CA        -76.5148   23.9978  -75.8397 C.3       5 UNK         0.0783 
     46 C46       -77.0151   25.3940  -75.3907 C.3       11 UNK        -0.0857 
     47 S47       -77.5980   25.3937  -73.6609 S.3       11 UNK        -0.2512 
     48 C48       -76.2086   26.2316  -72.8250 C.3       11 UNK         0.0225 
     49 N         -77.5948   23.0067  -75.8465 N.am      5 UNK        -0.4615 
     50 C         -77.4215   21.6779  -75.8000 C.2       4 UNK         0.5053 
     51 O         -76.3108   21.1477  -75.7379 O.2       4 UNK        -0.5105 
     52 CA        -78.6709   20.7746  -75.7977 C.3       4 UNK         0.0263 
     53 CB        -78.7994   20.0435  -74.4505 C.3       4 UNK        -0.1981 
     54 N         -79.9221   21.4869  -76.0617 N.am      4 UNK        -0.4224 
     55 C         -80.3368   21.9223  -77.2598 C.2       3 UNK         0.4895 
     56 O         -79.7269   21.7217  -78.3102 O.2       3 UNK        -0.5091 
     57 CA        -81.6483   22.7340  -77.2872 C.3       3 UNK         0.0250 
     58 CB        -82.8223   21.8440  -77.7269 C.3       3 UNK        -0.1996 
     59 N         -81.9748   23.3664  -76.0012 N.am      3 UNK        -0.4254 
     60 C         -81.2494   24.3409  -75.4353 C.2       2 UNK         0.5004 
     61 O         -80.2535   24.8368  -75.9647 O.2       2 UNK        -0.5226 
     62 CA        -81.6594   24.7591  -74.0151 C.3       2 UNK         0.0269 
     63 CB        -81.1611   23.7233  -72.9918 C.3       2 UNK        -0.1926 
     64 N         -81.1013   26.0636  -73.6590 N.am      2 UNK        -0.4687 
     65 C         -81.6590   27.2440  -73.9589 C.2       1 UNK         0.5165 
     66 O         -82.7271   27.3520  -74.5642 O.2       1 UNK        -0.5079 
     67 H67       -78.4109   26.9962  -70.6097 H         1 UNK         0.0900 
     68 H68       -78.5414   28.6686  -70.0435 H         1 UNK         0.0900 
     69 H69       -79.4510   27.3862  -69.2405 H         1 UNK         0.0900 
     70 H70       -78.9721   28.3555  -72.6936 H         1 UNK         0.2959 
     71 H71       -81.6950   29.1747  -73.0788 H         1 UNK         0.1079 
     72 H72       -81.0471   29.4314  -75.4753 H         1 UNK         0.0837 
     73 H73       -79.5230   28.6510  -75.1719 H         1 UNK         0.0837 
     74 H74       -77.7237   30.2788  -75.5930 H         1 UNK         0.0685 
     75 H75       -77.4052   31.7152  -74.6589 H         1 UNK         0.0685 
     76 H76       -77.3368   28.0478  -74.6051 H         1 UNK         0.1434 
     77 H77       -75.4174   27.7977  -70.7788 H         1 UNK         0.1329 
     78 H78       -76.7904   31.5812  -72.2469 H         1 UNK         0.1335 
     79 H79       -75.6945   31.5009  -70.1330 H         1 UNK         0.0680 
     80 H80       -76.1365   30.0506  -69.2750 H         1 UNK         0.0680 
     81 H81       -73.6705   32.4676  -69.8230 H         1 UNK         0.1032 
     82 H82       -72.2485   31.7790  -69.1255 H         1 UNK         0.1032 
     83 H83       -71.7894   32.8577  -71.2840 H         1 UNK         0.0461 
     84 H84       -69.8645   31.9389  -70.1178 H         1 UNK         0.3453 
     85 H85       -69.1054   30.5367  -70.8231 H         1 UNK         0.3453 
     86 H86       -73.9250   31.1771  -72.3203 H         1 UNK         0.2984 
     87 H87       -74.9619   32.5250  -74.2003 H         1 UNK         0.0554 
     88 H88       -73.7926   34.0798  -75.7127 H         1 UNK         0.0847 
     89 H89       -74.6510   32.8665  -76.6478 H         1 UNK         0.0847 
     90 H90       -72.9018   32.7625  -76.4548 H         1 UNK         0.0847 
     91 H91       -75.1186   30.3786  -74.6714 H         1 UNK         0.3141 
     92 H92       -74.3077   28.1300  -74.8866 H         1 UNK         0.0743 
     93 H93       -74.7269   29.0177  -77.8103 H         1 UNK         0.0784 
     94 H94       -75.4177   27.5567  -77.1241 H         1 UNK         0.0784 
     95 H95       -75.9157   29.1255  -76.5241 H         1 UNK         0.0784 
     96 H96       -72.1675   28.0965  -76.9021 H         1 UNK         0.3213 
     97 H97       -71.4702   26.0859  -77.7851 H         1 UNK         0.0855 
     98 H98       -70.8550   24.6163  -75.1470 H         1 UNK         0.0814 
     99 H99       -70.0344   26.0532  -75.7423 H         1 UNK         0.0814 
    100 H100      -69.8682   24.5315  -76.6056 H         1 UNK         0.0814 
    101 H101      -72.9485   23.8199  -76.5425 H         1 UNK         0.3105 
    102 H102      -74.6351   23.1775  -79.5352 H         1 UNK         0.0547 
    103 H103      -72.8033   21.4826  -79.6150 H         1 UNK         0.0837 
    104 H104      -72.8878   21.2812  -77.8706 H         1 UNK         0.0837 
    105 H105      -74.2515   20.8102  -78.8849 H         1 UNK         0.0837 
    106 H106      -74.9550   22.2449  -76.8374 H         1 UNK         0.3020 
    107 H107      -75.7648   23.6823  -75.1100 H         1 UNK         0.1245 
    108 H108      -76.2160   26.1287  -75.4872 H         1 UNK         0.0781 
    109 H109      -77.8213   25.7456  -76.0358 H         1 UNK         0.0781 
    110 H110      -75.2688   26.0030  -73.3278 H         1 UNK         0.0836 
    111 H111      -76.1271   25.7945  -71.8287 H         1 UNK         0.0836 
    112 H112      -78.5319   23.3848  -75.9070 H         1 UNK         0.3022 
    113 H113      -78.5285   20.0268  -76.5808 H         1 UNK         0.0747 
    114 H114      -79.6406   19.3500  -74.4528 H         1 UNK         0.0793 
    115 H115      -77.9035   19.4595  -74.2343 H         1 UNK         0.0793 
    116 H116      -78.9398   20.7415  -73.6239 H         1 UNK         0.0793 
    117 H117      -80.4988   21.6934  -75.2601 H         1 UNK         0.3047 
    118 H118      -81.5225   23.5265  -78.0284 H         1 UNK         0.0822 
    119 H119      -83.0089   21.0388  -77.0150 H         1 UNK         0.0807 
    120 H120      -82.6207   21.3824  -78.6947 H         1 UNK         0.0807 
    121 H121      -83.7412   22.4211  -77.8317 H         1 UNK         0.0807 
    122 H122      -82.7794   23.0031  -75.5095 H         1 UNK         0.2946 
    123 H123      -82.7499   24.8099  -73.9667 H         1 UNK         0.1144 
    124 H124      -81.4238   24.0153  -71.9746 H         1 UNK         0.0793 
    125 H125      -80.0778   23.6011  -73.0337 H         1 UNK         0.0793 
    126 H126      -81.6078   22.7442  -73.1681 H         1 UNK         0.0793 
    127 H127      -80.1911   26.0635  -73.2208 H         1 UNK         0.2896 
@<TRIPOS>BOND
     1    1    2 1    
     2    1   67 1    
     3    1   68 1    
     4    1   69 1    
     5    2    3 2    
     6    2    4 am   BACKBONE|DICT|INTERRES
     7    4    5 1    
     8    4   70 1    
     9    5    6 1    
    10    5   65 1    
    11    5   71 1    
    12    6    7 1    
    13    6   72 1    
    14    6   73 1    
    15    7    8 1    
    16    8    9 1    
    17    8   74 1    
    18    8   75 1    
    19    9   10 ar   
    20    9   14 ar   
    21   10   11 ar   
    22   10   76 1    
    23   11   12 ar   
    24   11   48 1    
    25   12   13 ar   
    26   12   77 1    
    27   13   14 ar   
    28   13   15 1    
    29   14   78 1    
    30   15   16 1    
    31   15   79 1    
    32   15   80 1    
    33   16   17 1    
    34   17   18 1    
    35   17   81 1    
    36   17   82 1    
    37   18   19 1    
    38   18   22 1    
    39   18   83 1    
    40   19   20 am   BACKBONE|DICT|INTERRES
    41   19   21 2    
    42   20   84 1    
    43   20   85 1    
    44   22   23 am   BACKBONE|DICT|INTERRES
    45   22   86 1    
    46   23   24 2    
    47   23   25 1    
    48   25   26 1    
    49   25   27 1    
    50   25   87 1    
    51   26   88 1    
    52   26   89 1    
    53   26   90 1    
    54   27   28 am   BACKBONE|DICT|INTERRES
    55   27   91 1    
    56   28   29 2    
    57   28   30 1    
    58   30   31 1    
    59   30   32 1    
    60   30   92 1    
    61   31   93 1    
    62   31   94 1    
    63   31   95 1    
    64   32   33 am   BACKBONE|DICT|INTERRES
    65   32   96 1    
    66   33   34 2    
    67   33   35 1    
    68   35   36 1    
    69   35   37 1    
    70   35   97 1    
    71   36   98 1    
    72   36   99 1    
    73   36  100 1    
    74   37   38 am   BACKBONE|DICT|INTERRES
    75   37  101 1    
    76   38   39 2    
    77   38   40 1    
    78   40   41 1    
    79   40   42 1    
    80   40  102 1    
    81   41  103 1    
    82   41  104 1    
    83   41  105 1    
    84   42   43 am   BACKBONE|DICT|INTERRES
    85   42  106 1    
    86   43   44 2    
    87   43   45 1    
    88   45   46 1    
    89   45   49 1    
    90   45  107 1    
    91   46   47 1    
    92   46  108 1    
    93   46  109 1    
    94   47   48 1    
    95   48  110 1    
    96   48  111 1    
    97   49   50 am   BACKBONE|DICT|INTERRES
    98   49  112 1    
    99   50   51 2    
   100   50   52 1    
   101   52   53 1    
   102   52   54 1    
   103   52  113 1    
   104   53  114 1    
   105   53  115 1    
   106   53  116 1    
   107   54   55 am   BACKBONE|DICT|INTERRES
   108   54  117 1    
   109   55   56 2    
   110   55   57 1    
   111   57   58 1    
   112   57   59 1    
   113   57  118 1    
   114   58  119 1    
   115   58  120 1    
   116   58  121 1    
   117   59   60 am   BACKBONE|DICT|INTERRES
   118   59  122 1    
   119   60   61 2    
   120   60   62 1    
   121   62   63 1    
   122   62   64 1    
   123   62  123 1    
   124   63  124 1    
   125   63  125 1    
   126   63  126 1    
   127   64   65 am   BACKBONE|DICT|INTERRES
   128   64  127 1    
   129   65   66 2    
@<TRIPOS>SUBSTRUCTURE
     1 UNK         1 GROUP             0       ****    0 ROOT    
