@<TRIPOS>MOLECULE
3R135
127   129    1
SMALL
USER_CHARGES


@<TRIPOS>ATOM
      1 CA        -86.3490   29.3398  -73.1761 C.3       0 UNK        -0.1998 
      2 C         -84.9338   29.2578  -73.7286 C.2       0 UNK         0.4909 
      3 O         -84.5547   30.0758  -74.5678 O.2       0 UNK        -0.5240 
      4 N         -84.1534   28.2760  -73.2695 N.am      1 UNK        -0.4739 
      5 CA        -82.7737   28.0219  -73.6817 C.3       1 UNK         0.0864 
      6 C6        -81.7579   29.0186  -73.0564 C.3       11 UNK        -0.0881 
      7 S7        -81.7418   29.0440  -71.2270 S.3       11 UNK        -0.2682 
      8 C8        -80.5357   30.3688  -70.8948 C.3       11 UNK         0.0289 
      9 C9        -79.1486   30.0079  -71.4057 C.ar      11 UNK        -0.0687 
     10 C10       -78.6673   30.5709  -72.5922 C.ar      11 UNK        -0.0823 
     11 C11       -77.4181   30.1980  -73.0942 C.ar      11 UNK        -0.0830 
     12 C12       -76.6411   29.2750  -72.3915 C.ar      11 UNK        -0.1021 
     13 C13       -77.1047   28.7136  -71.1999 C.ar      11 UNK        -0.0753 
     14 C14       -78.3593   29.0872  -70.7083 C.ar      11 UNK        -0.0933 
     15 C15       -76.2777   27.6552  -70.4863 C.3       11 UNK         0.0166 
     16 S16       -74.5670   28.2104  -70.1645 S.3       11 UNK        -0.2615 
     17 C17       -73.5938   26.7553  -70.6862 C.3       11 UNK        -0.0865 
     18 CA        -72.4599   27.0785  -71.6967 C.3       10 UNK         0.0862 
     19 C         -71.6388   25.7938  -71.9994 C.2       10 UNK         0.5551 
     20 N         -71.8066   25.1470  -73.1491 N.am      10 UNK        -0.7319 
     21 O         -70.8303   25.3781  -71.1730 O.2       10 UNK        -0.5018 
     22 N         -72.9315   27.7324  -72.9310 N.am      10 UNK        -0.4509 
     23 C         -72.6000   28.9751  -73.3041 C.2       10 UNK         0.4899 
     24 O         -72.0751   29.8043  -72.5584 O.2       10 UNK        -0.4839 
     25 CA        -72.8551   29.3260  -74.7867 C.3       9 UNK         0.0222 
     26 CB        -72.3362   30.7271  -75.1755 C.3       9 UNK        -0.1966 
     27 N         -72.3354   28.3025  -75.7109 N.am      9 UNK        -0.4218 
     28 C         -71.0639   27.8692  -75.7710 C.2       9 UNK         0.5020 
     29 O         -70.1595   28.3349  -75.0750 O.2       9 UNK        -0.5274 
     30 CA        -70.7166   26.7377  -76.7554 C.3       8 UNK         0.0270 
     31 CB        -69.5701   25.8486  -76.2162 C.3       8 UNK        -0.1976 
     32 N         -71.8634   25.9020  -77.1353 N.am      8 UNK        -0.4313 
     33 C         -71.8664   25.1224  -78.2283 C.2       8 UNK         0.5041 
     34 O         -70.9663   25.1183  -79.0704 O.2       8 UNK        -0.5577 
     35 CA        -73.0528   24.1628  -78.4119 C.3       7 UNK         0.0284 
     36 CB        -73.0494   23.0742  -77.3261 C.3       7 UNK        -0.1958 
     37 N         -74.3452   24.8454  -78.4396 N.am      7 UNK        -0.4454 
     38 C         -74.7278   25.7165  -79.3848 C.2       7 UNK         0.5089 
     39 O         -74.0413   26.0267  -80.3588 O.2       7 UNK        -0.5125 
     40 CA        -76.1162   26.3562  -79.2174 C.3       6 UNK         0.0408 
     41 CB        -77.1967   25.4834  -79.8755 C.3       6 UNK        -0.1791 
     42 N         -76.4761   26.6019  -77.8203 N.am      6 UNK        -0.4762 
     43 C         -75.8350   27.4446  -76.9976 C.2       6 UNK         0.5007 
     44 O         -74.8376   28.0972  -77.3079 O.2       6 UNK        -0.5032 
     45 CA        -76.3700   27.5071  -75.5575 C.3       5 UNK         0.0783 
     46 C46       -77.7538   28.2004  -75.4739 C.3       11 UNK        -0.0857 
     47 S47       -77.7380   29.9896  -75.8561 S.3       11 UNK        -0.2512 
     48 C48       -76.9187   30.7558  -74.4165 C.3       11 UNK         0.0225 
     49 N         -76.3868   26.1660  -74.9707 N.am      5 UNK        -0.4615 
     50 C         -75.2939   25.4361  -74.6926 C.2       4 UNK         0.5053 
     51 O         -74.1398   25.8666  -74.7848 O.2       4 UNK        -0.5105 
     52 CA        -75.5078   23.9725  -74.2581 C.3       4 UNK         0.0263 
     53 CB        -75.4028   23.8374  -72.7330 C.3       4 UNK        -0.1981 
     54 N         -76.7812   23.4029  -74.7022 N.am      4 UNK        -0.4224 
     55 C         -77.1394   23.2105  -75.9801 C.2       3 UNK         0.4895 
     56 O         -76.4053   23.4480  -76.9388 O.2       3 UNK        -0.5091 
     57 CA        -78.5821   22.7329  -76.2302 C.3       3 UNK         0.0250 
     58 CB        -78.6263   21.2017  -76.3517 C.3       3 UNK        -0.1996 
     59 N         -79.5402   23.1737  -75.2049 N.am      3 UNK        -0.4254 
     60 C         -79.8026   24.4557  -74.9144 C.2       2 UNK         0.5004 
     61 O         -79.2536   25.4080  -75.4746 O.2       2 UNK        -0.5226 
     62 CA        -80.7834   24.7240  -73.7694 C.3       2 UNK         0.0269 
     63 CB        -80.0761   24.5799  -72.4075 C.3       2 UNK        -0.1926 
     64 N         -81.2973   26.0828  -73.9171 N.am      2 UNK        -0.4687 
     65 C         -82.4329   26.5484  -73.3881 C.2       1 UNK         0.5165 
     66 O         -83.1954   25.8642  -72.6973 O.2       1 UNK        -0.5079 
     67 H67       -86.5451   28.5581  -72.4421 H         1 UNK         0.0900 
     68 H68       -86.5078   30.3042  -72.6943 H         1 UNK         0.0900 
     69 H69       -87.0741   29.2375  -73.9831 H         1 UNK         0.0900 
     70 H70       -84.5068   27.5922  -72.6106 H         1 UNK         0.2959 
     71 H71       -82.7306   28.1298  -74.7682 H         1 UNK         0.1079 
     72 H72       -80.7508   28.7978  -73.4138 H         1 UNK         0.0837 
     73 H73       -81.9761   30.0282  -73.4076 H         1 UNK         0.0837 
     74 H74       -80.8868   31.2987  -71.3452 H         1 UNK         0.0685 
     75 H75       -80.4919   30.5468  -69.8193 H         1 UNK         0.0685 
     76 H76       -79.2774   31.2731  -73.1442 H         1 UNK         0.1434 
     77 H77       -75.6775   28.9743  -72.7766 H         1 UNK         0.1329 
     78 H78       -78.7385   28.6417  -69.7986 H         1 UNK         0.1335 
     79 H79       -76.7356   27.3779  -69.5345 H         1 UNK         0.0680 
     80 H80       -76.2939   26.7583  -71.1067 H         1 UNK         0.0680 
     81 H81       -73.1709   26.3132  -69.7807 H         1 UNK         0.1032 
     82 H82       -74.2521   25.9933  -71.1002 H         1 UNK         0.1032 
     83 H83       -71.7623   27.7454  -71.1862 H         1 UNK         0.0461 
     84 H84       -71.2592   24.3187  -73.3184 H         1 UNK         0.3453 
     85 H85       -72.5106   25.4311  -73.8170 H         1 UNK         0.3453 
     86 H86       -73.3521   27.1185  -73.6209 H         1 UNK         0.2984 
     87 H87       -73.9322   29.3492  -74.9190 H         1 UNK         0.0554 
     88 H88       -72.5679   30.9605  -76.2147 H         1 UNK         0.0847 
     89 H89       -71.2569   30.8126  -75.0449 H         1 UNK         0.0847 
     90 H90       -72.7995   31.4993  -74.5601 H         1 UNK         0.0847 
     91 H91       -73.0191   27.9279  -76.3610 H         1 UNK         0.3141 
     92 H92       -70.3564   27.2440  -77.6536 H         1 UNK         0.0743 
     93 H93       -69.8633   25.3318  -75.3023 H         1 UNK         0.0784 
     94 H94       -69.2624   25.0952  -76.9409 H         1 UNK         0.0784 
     95 H95       -68.6816   26.4383  -75.9871 H         1 UNK         0.0784 
     96 H96       -72.6383   25.8505  -76.4843 H         1 UNK         0.3213 
     97 H97       -72.9297   23.6669  -79.3773 H         1 UNK         0.0855 
     98 H98       -73.1305   23.4982  -76.3265 H         1 UNK         0.0814 
     99 H99       -72.1226   22.4998  -77.3577 H         1 UNK         0.0814 
    100 H100      -73.8707   22.3703  -77.4629 H         1 UNK         0.0814 
    101 H101      -75.0271   24.5740  -77.7365 H         1 UNK         0.3105 
    102 H102      -76.0992   27.3212  -79.7284 H         1 UNK         0.0547 
    103 H103      -78.1745   25.9634  -79.8363 H         1 UNK         0.0837 
    104 H104      -76.9665   25.3055  -80.9269 H         1 UNK         0.0837 
    105 H105      -77.2802   24.5093  -79.3917 H         1 UNK         0.0837 
    106 H106      -77.2545   26.0723  -77.4525 H         1 UNK         0.3020 
    107 H107      -75.6710   28.0924  -74.9672 H         1 UNK         0.1245 
    108 H108      -78.1922   28.0533  -74.4863 H         1 UNK         0.0781 
    109 H109      -78.4578   27.7360  -76.1653 H         1 UNK         0.0781 
    110 H110      -77.0921   31.8326  -74.4455 H         1 UNK         0.0836 
    111 H111      -75.8403   30.6270  -74.5063 H         1 UNK         0.0836 
    112 H112      -77.2995   25.7292  -74.9060 H         1 UNK         0.3022 
    113 H113      -74.7121   23.3743  -74.7024 H         1 UNK         0.0747 
    114 H114      -75.5727   22.8094  -72.4119 H         1 UNK         0.0793 
    115 H115      -74.4050   24.1106  -72.3912 H         1 UNK         0.0793 
    116 H116      -76.1222   24.4742  -72.2164 H         1 UNK         0.0793 
    117 H117      -77.4513   23.1732  -73.9834 H         1 UNK         0.3047 
    118 H118      -78.9003   23.1613  -77.1832 H         1 UNK         0.0822 
    119 H119      -78.3461   20.7126  -75.4179 H         1 UNK         0.0807 
    120 H120      -77.9374   20.8518  -77.1222 H         1 UNK         0.0807 
    121 H121      -79.6216   20.8536  -76.6291 H         1 UNK         0.0807 
    122 H122      -80.0228   22.4469  -74.6951 H         1 UNK         0.2946 
    123 H123      -81.6098   24.0128  -73.8412 H         1 UNK         0.1144 
    124 H124      -79.6748   23.5747  -72.2732 H         1 UNK         0.0793 
    125 H125      -79.2464   25.2819  -72.3091 H         1 UNK         0.0793 
    126 H126      -80.7635   24.7622  -71.5812 H         1 UNK         0.0793 
    127 H127      -80.7303   26.6688  -74.5180 H         1 UNK         0.2896 
@<TRIPOS>BOND
     1    1    2 1    
     2    1   67 1    
     3    1   68 1    
     4    1   69 1    
     5    2    3 2    
     6    2    4 am   BACKBONE|DICT|INTERRES
     7    4    5 1    
     8    4   70 1    
     9    5    6 1    
    10    5   65 1    
    11    5   71 1    
    12    6    7 1    
    13    6   72 1    
    14    6   73 1    
    15    7    8 1    
    16    8    9 1    
    17    8   74 1    
    18    8   75 1    
    19    9   10 ar   
    20    9   14 ar   
    21   10   11 ar   
    22   10   76 1    
    23   11   12 ar   
    24   11   48 1    
    25   12   13 ar   
    26   12   77 1    
    27   13   14 ar   
    28   13   15 1    
    29   14   78 1    
    30   15   16 1    
    31   15   79 1    
    32   15   80 1    
    33   16   17 1    
    34   17   18 1    
    35   17   81 1    
    36   17   82 1    
    37   18   19 1    
    38   18   22 1    
    39   18   83 1    
    40   19   20 am   BACKBONE|DICT|INTERRES
    41   19   21 2    
    42   20   84 1    
    43   20   85 1    
    44   22   23 am   BACKBONE|DICT|INTERRES
    45   22   86 1    
    46   23   24 2    
    47   23   25 1    
    48   25   26 1    
    49   25   27 1    
    50   25   87 1    
    51   26   88 1    
    52   26   89 1    
    53   26   90 1    
    54   27   28 am   BACKBONE|DICT|INTERRES
    55   27   91 1    
    56   28   29 2    
    57   28   30 1    
    58   30   31 1    
    59   30   32 1    
    60   30   92 1    
    61   31   93 1    
    62   31   94 1    
    63   31   95 1    
    64   32   33 am   BACKBONE|DICT|INTERRES
    65   32   96 1    
    66   33   34 2    
    67   33   35 1    
    68   35   36 1    
    69   35   37 1    
    70   35   97 1    
    71   36   98 1    
    72   36   99 1    
    73   36  100 1    
    74   37   38 am   BACKBONE|DICT|INTERRES
    75   37  101 1    
    76   38   39 2    
    77   38   40 1    
    78   40   41 1    
    79   40   42 1    
    80   40  102 1    
    81   41  103 1    
    82   41  104 1    
    83   41  105 1    
    84   42   43 am   BACKBONE|DICT|INTERRES
    85   42  106 1    
    86   43   44 2    
    87   43   45 1    
    88   45   46 1    
    89   45   49 1    
    90   45  107 1    
    91   46   47 1    
    92   46  108 1    
    93   46  109 1    
    94   47   48 1    
    95   48  110 1    
    96   48  111 1    
    97   49   50 am   BACKBONE|DICT|INTERRES
    98   49  112 1    
    99   50   51 2    
   100   50   52 1    
   101   52   53 1    
   102   52   54 1    
   103   52  113 1    
   104   53  114 1    
   105   53  115 1    
   106   53  116 1    
   107   54   55 am   BACKBONE|DICT|INTERRES
   108   54  117 1    
   109   55   56 2    
   110   55   57 1    
   111   57   58 1    
   112   57   59 1    
   113   57  118 1    
   114   58  119 1    
   115   58  120 1    
   116   58  121 1    
   117   59   60 am   BACKBONE|DICT|INTERRES
   118   59  122 1    
   119   60   61 2    
   120   60   62 1    
   121   62   63 1    
   122   62   64 1    
   123   62  123 1    
   124   63  124 1    
   125   63  125 1    
   126   63  126 1    
   127   64   65 am   BACKBONE|DICT|INTERRES
   128   64  127 1    
   129   65   66 2    
@<TRIPOS>SUBSTRUCTURE
     1 UNK         1 GROUP             0       ****    0 ROOT    
