@<TRIPOS>MOLECULE
3R135
127   129    1
SMALL
USER_CHARGES


@<TRIPOS>ATOM
      1 CA        -83.5466   27.2478  -70.9008 C.3       0 UNK        -0.1998 
      2 C         -83.3272   27.7110  -72.3330 C.2       0 UNK         0.4909 
      3 O         -84.2949   27.9378  -73.0598 O.2       0 UNK        -0.5240 
      4 N         -82.0603   27.8516  -72.7435 N.am      1 UNK        -0.4739 
      5 CA        -81.6608   28.2770  -74.0921 C.3       1 UNK         0.0864 
      6 C6        -80.2028   28.8013  -74.1137 C.3       11 UNK        -0.0881 
      7 S7        -80.0305   30.4152  -73.2760 S.3       11 UNK        -0.2682 
      8 C8        -79.4484   29.9726  -71.6050 C.3       11 UNK         0.0289 
      9 C9        -78.1146   29.2378  -71.6167 C.ar      11 UNK        -0.0687 
     10 C10       -78.0350   27.9242  -71.1446 C.ar      11 UNK        -0.0823 
     11 C11       -76.8204   27.2300  -71.1704 C.ar      11 UNK        -0.0830 
     12 C12       -75.6791   27.8766  -71.6515 C.ar      11 UNK        -0.1021 
     13 C13       -75.7328   29.2009  -72.0961 C.ar      11 UNK        -0.0753 
     14 C14       -76.9584   29.8744  -72.0807 C.ar      11 UNK        -0.0933 
     15 C15       -74.4710   29.9019  -72.5887 C.3       11 UNK         0.0166 
     16 S16       -73.1606   29.8857  -71.3165 S.3       11 UNK        -0.2615 
     17 C17       -71.9112   31.1382  -71.7998 C.3       11 UNK        -0.0865 
     18 CA        -71.9625   31.7296  -73.2345 C.3       10 UNK         0.0862 
     19 C         -70.9663   32.9211  -73.3670 C.2       10 UNK         0.5551 
     20 N         -69.9179   32.8303  -74.1770 N.am      10 UNK        -0.7319 
     21 O         -71.1543   33.9504  -72.7231 O.2       10 UNK        -0.5018 
     22 N         -71.7936   30.6873  -74.2588 N.am      10 UNK        -0.4509 
     23 C         -72.1528   30.8099  -75.5410 C.2       10 UNK         0.4899 
     24 O         -72.7253   31.8009  -75.9951 O.2       10 UNK        -0.4839 
     25 CA        -71.8355   29.6400  -76.4887 C.3       9 UNK         0.0222 
     26 CB        -70.4633   29.8302  -77.1641 C.3       9 UNK        -0.1966 
     27 N         -71.9688   28.2996  -75.8989 N.am      9 UNK        -0.4218 
     28 C         -71.2167   27.7018  -74.9602 C.2       9 UNK         0.5020 
     29 O         -70.2768   28.2583  -74.3904 O.2       9 UNK        -0.5274 
     30 CA        -71.5790   26.2591  -74.5485 C.3       8 UNK         0.0270 
     31 CB        -72.0966   26.2391  -73.1017 C.3       8 UNK        -0.1976 
     32 N         -72.5735   25.6248  -75.4203 N.am      8 UNK        -0.4313 
     33 C         -72.3313   25.1929  -76.6685 C.2       8 UNK         0.5041 
     34 O         -71.2075   25.1764  -77.1721 O.2       8 UNK        -0.5577 
     35 CA        -73.5348   24.7378  -77.5223 C.3       7 UNK         0.0284 
     36 CB        -73.6274   23.2034  -77.5382 C.3       7 UNK        -0.1958 
     37 N         -74.8269   25.2874  -77.0989 N.am      7 UNK        -0.4454 
     38 C         -75.1259   26.5864  -76.9549 C.2       7 UNK         0.5089 
     39 O         -74.3688   27.4998  -77.2806 O.2       7 UNK        -0.5125 
     40 CA        -76.4556   26.9304  -76.2621 C.3       6 UNK         0.0408 
     41 CB        -77.5244   27.2952  -77.3026 C.3       6 UNK        -0.1791 
     42 N         -76.9754   25.8726  -75.3904 N.am      6 UNK        -0.4762 
     43 C         -76.3529   25.3216  -74.3361 C.2       6 UNK         0.5007 
     44 O         -75.2024   25.5965  -73.9939 O.2       6 UNK        -0.5032 
     45 CA        -77.1453   24.2374  -73.5836 C.3       5 UNK         0.0783 
     46 C46       -78.3333   24.8469  -72.7841 C.3       11 UNK        -0.0857 
     47 S47       -78.1376   24.7257  -70.9775 S.3       11 UNK        -0.2512 
     48 C48       -76.6950   25.7987  -70.6520 C.3       11 UNK         0.0225 
     49 N         -77.6029   23.2331  -74.5427 N.am      5 UNK        -0.4615 
     50 C         -76.8707   22.2075  -74.9934 C.2       4 UNK         0.5053 
     51 O         -75.7443   21.9370  -74.5782 O.2       4 UNK        -0.5105 
     52 CA        -77.4954   21.3327  -76.0969 C.3       4 UNK         0.0263 
     53 CB        -78.1111   20.0626  -75.4881 C.3       4 UNK        -0.1981 
     54 N         -78.5148   22.0288  -76.8889 N.am      4 UNK        -0.4224 
     55 C         -78.2602   23.0303  -77.7428 C.2       3 UNK         0.4895 
     56 O         -77.1306   23.4561  -77.9828 O.2       3 UNK        -0.5091 
     57 CA        -79.4787   23.7041  -78.4003 C.3       3 UNK         0.0250 
     58 CB        -79.9175   22.9211  -79.6481 C.3       3 UNK        -0.1996 
     59 N         -80.6315   23.8938  -77.5067 N.am      3 UNK        -0.4254 
     60 C         -80.5993   24.5500  -76.3381 C.2       2 UNK         0.5004 
     61 O         -79.5648   24.9796  -75.8249 O.2       2 UNK        -0.5226 
     62 CA        -81.9303   24.7183  -75.5876 C.3       2 UNK         0.0269 
     63 CB        -82.2192   23.4744  -74.7316 C.3       2 UNK        -0.1926 
     64 N         -81.9006   25.8965  -74.7151 N.am      2 UNK        -0.4687 
     65 C         -81.8528   27.1659  -75.1482 C.2       1 UNK         0.5165 
     66 O         -81.9515   27.4797  -76.3359 O.2       1 UNK        -0.5079 
     67 H67       -82.6059   27.0828  -70.3756 H         1 UNK         0.0900 
     68 H68       -84.1089   26.3145  -70.8904 H         1 UNK         0.0900 
     69 H69       -84.1161   27.9949  -70.3486 H         1 UNK         0.0900 
     70 H70       -81.3060   27.6561  -72.1027 H         1 UNK         0.2959 
     71 H71       -82.3182   29.0952  -74.3964 H         1 UNK         0.1079 
     72 H72       -79.8678   28.9571  -75.1413 H         1 UNK         0.0837 
     73 H73       -79.5137   28.0697  -73.6903 H         1 UNK         0.0837 
     74 H74       -79.3400   30.8876  -71.0211 H         1 UNK         0.0685 
     75 H75       -80.2173   29.3842  -71.1030 H         1 UNK         0.0685 
     76 H76       -78.9210   27.4391  -70.7600 H         1 UNK         0.1434 
     77 H77       -74.7348   27.3520  -71.6617 H         1 UNK         0.1329 
     78 H78       -77.0192   30.8956  -72.4313 H         1 UNK         0.1335 
     79 H79       -74.7060   30.9307  -72.8604 H         1 UNK         0.0680 
     80 H80       -74.1162   29.4017  -73.4904 H         1 UNK         0.0680 
     81 H81       -72.0020   31.9442  -71.0687 H         1 UNK         0.1032 
     82 H82       -70.9274   30.6999  -71.6215 H         1 UNK         0.1032 
     83 H83       -72.9462   32.1775  -73.3769 H         1 UNK         0.0461 
     84 H84       -69.2837   33.6096  -74.2556 H         1 UNK         0.3453 
     85 H85       -69.7541   31.9883  -74.7046 H         1 UNK         0.3453 
     86 H86       -71.2776   29.8545  -73.9910 H         1 UNK         0.2984 
     87 H87       -72.5884   29.6762  -77.2776 H         1 UNK         0.0554 
     88 H88       -70.2716   29.0467  -77.8973 H         1 UNK         0.0847 
     89 H89       -69.6453   29.8215  -76.4435 H         1 UNK         0.0847 
     90 H90       -70.4187   30.7842  -77.6911 H         1 UNK         0.0847 
     91 H91       -72.7541   27.7741  -76.2749 H         1 UNK         0.3141 
     92 H92       -70.6615   25.6687  -74.5910 H         1 UNK         0.0743 
     93 H93       -72.3584   25.2302  -72.7824 H         1 UNK         0.0784 
     94 H94       -71.3427   26.6154  -72.4089 H         1 UNK         0.0784 
     95 H95       -72.9795   26.8677  -72.9916 H         1 UNK         0.0784 
     96 H96       -73.5250   25.5860  -75.0620 H         1 UNK         0.3213 
     97 H97       -73.3553   25.0839  -78.5421 H         1 UNK         0.0855 
     98 H98       -73.8443   22.8034  -76.5468 H         1 UNK         0.0814 
     99 H99       -72.6896   22.7577  -77.8727 H         1 UNK         0.0814 
    100 H100      -74.4079   22.8590  -78.2170 H         1 UNK         0.0814 
    101 H101      -75.5532   24.6168  -76.8786 H         1 UNK         0.3105 
    102 H102      -76.2774   27.8041  -75.6319 H         1 UNK         0.0547 
    103 H103      -77.1981   28.1325  -77.9209 H         1 UNK         0.0837 
    104 H104      -77.7333   26.4588  -77.9693 H         1 UNK         0.0837 
    105 H105      -78.4615   27.5869  -76.8280 H         1 UNK         0.0837 
    106 H106      -77.9248   25.5573  -75.5933 H         1 UNK         0.3020 
    107 H107      -76.4518   23.7527  -72.8927 H         1 UNK         0.1245 
    108 H108      -79.2618   24.3251  -73.0208 H         1 UNK         0.0781 
    109 H109      -78.5346   25.8861  -73.0494 H         1 UNK         0.0781 
    110 H110      -75.8098   25.3211  -71.0749 H         1 UNK         0.0836 
    111 H111      -76.5315   25.8379  -69.5744 H         1 UNK         0.0836 
    112 H112      -78.4862   23.4337  -74.9948 H         1 UNK         0.3022 
    113 H113      -76.6893   21.0343  -76.7709 H         1 UNK         0.0747 
    114 H114      -78.4881   19.3935  -76.2619 H         1 UNK         0.0793 
    115 H115      -77.3686   19.5054  -74.9149 H         1 UNK         0.0793 
    116 H116      -78.9355   20.2961  -74.8129 H         1 UNK         0.0793 
    117 H117      -79.4745   21.7460  -76.7529 H         1 UNK         0.3047 
    118 H118      -79.1598   24.6965  -78.7236 H         1 UNK         0.0822 
    119 H119      -80.2975   21.9310  -79.3931 H         1 UNK         0.0807 
    120 H120      -79.0818   22.7823  -80.3358 H         1 UNK         0.0807 
    121 H121      -80.6980   23.4502  -80.1952 H         1 UNK         0.0807 
    122 H122      -81.5198   23.5522  -77.8454 H         1 UNK         0.2946 
    123 H123      -82.7319   24.8496  -76.3179 H         1 UNK         0.1144 
    124 H124      -81.4378   23.3019  -73.9902 H         1 UNK         0.0793 
    125 H125      -82.2856   22.5779  -75.3495 H         1 UNK         0.0793 
    126 H126      -83.1675   23.5696  -74.2023 H         1 UNK         0.0793 
    127 H127      -81.8043   25.7296  -73.7250 H         1 UNK         0.2896 
@<TRIPOS>BOND
     1    1    2 1    
     2    1   67 1    
     3    1   68 1    
     4    1   69 1    
     5    2    3 2    
     6    2    4 am   BACKBONE|DICT|INTERRES
     7    4    5 1    
     8    4   70 1    
     9    5    6 1    
    10    5   65 1    
    11    5   71 1    
    12    6    7 1    
    13    6   72 1    
    14    6   73 1    
    15    7    8 1    
    16    8    9 1    
    17    8   74 1    
    18    8   75 1    
    19    9   10 ar   
    20    9   14 ar   
    21   10   11 ar   
    22   10   76 1    
    23   11   12 ar   
    24   11   48 1    
    25   12   13 ar   
    26   12   77 1    
    27   13   14 ar   
    28   13   15 1    
    29   14   78 1    
    30   15   16 1    
    31   15   79 1    
    32   15   80 1    
    33   16   17 1    
    34   17   18 1    
    35   17   81 1    
    36   17   82 1    
    37   18   19 1    
    38   18   22 1    
    39   18   83 1    
    40   19   20 am   BACKBONE|DICT|INTERRES
    41   19   21 2    
    42   20   84 1    
    43   20   85 1    
    44   22   23 am   BACKBONE|DICT|INTERRES
    45   22   86 1    
    46   23   24 2    
    47   23   25 1    
    48   25   26 1    
    49   25   27 1    
    50   25   87 1    
    51   26   88 1    
    52   26   89 1    
    53   26   90 1    
    54   27   28 am   BACKBONE|DICT|INTERRES
    55   27   91 1    
    56   28   29 2    
    57   28   30 1    
    58   30   31 1    
    59   30   32 1    
    60   30   92 1    
    61   31   93 1    
    62   31   94 1    
    63   31   95 1    
    64   32   33 am   BACKBONE|DICT|INTERRES
    65   32   96 1    
    66   33   34 2    
    67   33   35 1    
    68   35   36 1    
    69   35   37 1    
    70   35   97 1    
    71   36   98 1    
    72   36   99 1    
    73   36  100 1    
    74   37   38 am   BACKBONE|DICT|INTERRES
    75   37  101 1    
    76   38   39 2    
    77   38   40 1    
    78   40   41 1    
    79   40   42 1    
    80   40  102 1    
    81   41  103 1    
    82   41  104 1    
    83   41  105 1    
    84   42   43 am   BACKBONE|DICT|INTERRES
    85   42  106 1    
    86   43   44 2    
    87   43   45 1    
    88   45   46 1    
    89   45   49 1    
    90   45  107 1    
    91   46   47 1    
    92   46  108 1    
    93   46  109 1    
    94   47   48 1    
    95   48  110 1    
    96   48  111 1    
    97   49   50 am   BACKBONE|DICT|INTERRES
    98   49  112 1    
    99   50   51 2    
   100   50   52 1    
   101   52   53 1    
   102   52   54 1    
   103   52  113 1    
   104   53  114 1    
   105   53  115 1    
   106   53  116 1    
   107   54   55 am   BACKBONE|DICT|INTERRES
   108   54  117 1    
   109   55   56 2    
   110   55   57 1    
   111   57   58 1    
   112   57   59 1    
   113   57  118 1    
   114   58  119 1    
   115   58  120 1    
   116   58  121 1    
   117   59   60 am   BACKBONE|DICT|INTERRES
   118   59  122 1    
   119   60   61 2    
   120   60   62 1    
   121   62   63 1    
   122   62   64 1    
   123   62  123 1    
   124   63  124 1    
   125   63  125 1    
   126   63  126 1    
   127   64   65 am   BACKBONE|DICT|INTERRES
   128   64  127 1    
   129   65   66 2    
@<TRIPOS>SUBSTRUCTURE
     1 UNK         1 GROUP             0       ****    0 ROOT    
