@<TRIPOS>MOLECULE
3R135
127   129    1
SMALL
USER_CHARGES


@<TRIPOS>ATOM
      1 CA        -82.8016   30.8183  -72.7399 C.3       0 UNK        -0.1998 
      2 C         -82.0402   30.7259  -74.0537 C.2       0 UNK         0.4909 
      3 O         -81.4917   31.7276  -74.5141 O.2       0 UNK        -0.5240 
      4 N         -82.0046   29.5338  -74.6580 N.am      1 UNK        -0.4739 
      5 CA        -81.3326   29.2614  -75.9330 C.3       1 UNK         0.0864 
      6 C6        -79.7825   29.2601  -75.8375 C.3       11 UNK        -0.0881 
      7 S7        -79.0911   28.0543  -74.6490 S.3       11 UNK        -0.2682 
      8 C8        -78.6043   29.1418  -73.2606 C.3       11 UNK         0.0289 
      9 C9        -77.6271   28.5291  -72.2526 C.ar      11 UNK        -0.0687 
     10 C10       -77.3151   27.1628  -72.2278 C.ar      11 UNK        -0.0823 
     11 C11       -76.4591   26.6373  -71.2566 C.ar      11 UNK        -0.0830 
     12 C12       -75.8848   27.4934  -70.3142 C.ar      11 UNK        -0.1021 
     13 C13       -76.1719   28.8610  -70.3302 C.ar      11 UNK        -0.0753 
     14 C14       -77.0448   29.3694  -71.2973 C.ar      11 UNK        -0.0933 
     15 C15       -75.5742   29.7732  -69.2691 C.3       11 UNK         0.0166 
     16 S16       -73.8843   30.3024  -69.6900 S.3       11 UNK        -0.2615 
     17 C17       -74.1863   31.6679  -70.8698 C.3       11 UNK        -0.0865 
     18 CA        -73.5215   31.4624  -72.2564 C.3       10 UNK         0.0862 
     19 C         -71.9684   31.5965  -72.1966 C.2       10 UNK         0.5551 
     20 N         -71.1861   30.6034  -72.6041 N.am      10 UNK        -0.7319 
     21 O         -71.4625   32.6369  -71.7823 O.2       10 UNK        -0.5018 
     22 N         -74.0236   30.2503  -72.9178 N.am      10 UNK        -0.4509 
     23 C         -73.9594   30.0184  -74.2326 C.2       10 UNK         0.4899 
     24 O         -73.5618   30.8361  -75.0651 O.2       10 UNK        -0.4839 
     25 CA        -74.4169   28.6264  -74.6949 C.3       9 UNK         0.0222 
     26 CB        -75.6938   28.7405  -75.5373 C.3       9 UNK        -0.1966 
     27 N         -73.3911   27.9241  -75.4713 N.am      9 UNK        -0.4218 
     28 C         -72.1334   27.6808  -75.0677 C.2       9 UNK         0.5020 
     29 O         -71.7052   28.0012  -73.9569 O.2       9 UNK        -0.5274 
     30 CA        -71.1920   26.9369  -76.0350 C.3       8 UNK         0.0270 
     31 CB        -70.5354   25.7281  -75.3432 C.3       8 UNK        -0.1976 
     32 N         -71.8664   26.4797  -77.2539 N.am      8 UNK        -0.4313 
     33 C         -71.9389   27.1772  -78.3967 C.2       8 UNK         0.5041 
     34 O         -71.4196   28.2831  -78.5511 O.2       8 UNK        -0.5577 
     35 CA        -72.7208   26.5545  -79.5710 C.3       7 UNK         0.0284 
     36 CB        -71.7515   25.9298  -80.5879 C.3       7 UNK        -0.1958 
     37 N         -73.7090   25.5478  -79.1715 N.am      7 UNK        -0.4454 
     38 C         -74.8134   25.7983  -78.4554 C.2       7 UNK         0.5089 
     39 O         -75.1263   26.9232  -78.0687 O.2       7 UNK        -0.5125 
     40 CA        -75.6956   24.5955  -78.0597 C.3       6 UNK         0.0408 
     41 CB        -75.4158   23.3151  -78.8778 C.3       6 UNK        -0.1791 
     42 N         -75.6164   24.2970  -76.6244 N.am      6 UNK        -0.4762 
     43 C         -74.4987   24.1021  -75.9023 C.2       6 UNK         0.5007 
     44 O         -73.3605   24.1759  -76.3676 O.2       6 UNK        -0.5032 
     45 CA        -74.6707   23.7488  -74.4104 C.3       5 UNK         0.0783 
     46 C46       -74.6279   25.0344  -73.5529 C.3       11 UNK        -0.0857 
     47 S47       -74.5315   24.6896  -71.7669 S.3       11 UNK        -0.2512 
     48 C48       -76.1986   25.1378  -71.1921 C.3       11 UNK         0.0225 
     49 N         -75.8761   22.9477  -74.1666 N.am      5 UNK        -0.4615 
     50 C         -76.0690   21.7092  -74.6391 C.2       4 UNK         0.5053 
     51 O         -75.2060   21.0764  -75.2487 O.2       4 UNK        -0.5105 
     52 CA        -77.4409   21.0466  -74.4078 C.3       4 UNK         0.0263 
     53 CB        -77.3047   19.8778  -73.4168 C.3       4 UNK        -0.1981 
     54 N         -78.5331   21.9181  -73.9538 N.am      4 UNK        -0.4224 
     55 C         -79.0290   22.9908  -74.5860 C.2       3 UNK         0.4895 
     56 O         -78.5142   23.5186  -75.5760 O.2       3 UNK        -0.5091 
     57 CA        -80.3248   23.5601  -73.9938 C.3       3 UNK         0.0250 
     58 CB        -80.0822   24.2900  -72.6605 C.3       3 UNK        -0.1996 
     59 N         -80.9500   24.4763  -74.9445 N.am      3 UNK        -0.4254 
     60 C         -82.2684   24.6160  -75.1220 C.2       2 UNK         0.5004 
     61 O         -83.1160   23.9959  -74.4769 O.2       2 UNK        -0.5226 
     62 CA        -82.7025   25.6637  -76.1558 C.3       2 UNK         0.0269 
     63 CB        -84.2324   25.7450  -76.3383 C.3       2 UNK        -0.1926 
     64 N         -82.1757   26.9637  -75.7463 N.am      2 UNK        -0.4687 
     65 C         -81.8802   27.9739  -76.5745 C.2       1 UNK         0.5165 
     66 O         -82.0439   27.9257  -77.7945 O.2       1 UNK        -0.5079 
     67 H67       -83.6121   31.5416  -72.8258 H         1 UNK         0.0900 
     68 H68       -82.1343   31.1466  -71.9434 H         1 UNK         0.0900 
     69 H69       -83.2312   29.8603  -72.4480 H         1 UNK         0.0900 
     70 H70       -82.5242   28.7625  -74.2651 H         1 UNK         0.2959 
     71 H71       -81.6139   30.0660  -76.6168 H         1 UNK         0.1079 
     72 H72       -79.3481   29.0503  -76.8169 H         1 UNK         0.0837 
     73 H73       -79.4314   30.2611  -75.5854 H         1 UNK         0.0837 
     74 H74       -78.1629   30.0558  -73.6594 H         1 UNK         0.0685 
     75 H75       -79.5076   29.4439  -72.7296 H         1 UNK         0.0685 
     76 H76       -77.7453   26.4925  -72.9542 H         1 UNK         0.1434 
     77 H77       -75.2235   27.0917  -69.5582 H         1 UNK         0.1329 
     78 H78       -77.2847   30.4239  -71.2986 H         1 UNK         0.1335 
     79 H79       -76.2077   30.6461  -69.1034 H         1 UNK         0.0680 
     80 H80       -75.5425   29.2430  -68.3160 H         1 UNK         0.0680 
     81 H81       -73.8390   32.5973  -70.4143 H         1 UNK         0.1032 
     82 H82       -75.2594   31.8048  -71.0052 H         1 UNK         0.1032 
     83 H83       -73.8455   32.3034  -72.8727 H         1 UNK         0.0461 
     84 H84       -70.1866   30.7173  -72.5580 H         1 UNK         0.3453 
     85 H85       -71.5749   29.7409  -72.9713 H         1 UNK         0.3453 
     86 H86       -74.3446   29.5189  -72.2984 H         1 UNK         0.2984 
     87 H87       -74.6407   28.0231  -73.8131 H         1 UNK         0.0554 
     88 H88       -76.1558   27.7655  -75.6935 H         1 UNK         0.0847 
     89 H89       -76.4296   29.3754  -75.0480 H         1 UNK         0.0847 
     90 H90       -75.4955   29.1818  -76.5147 H         1 UNK         0.0847 
     91 H91       -73.6567   27.6423  -76.4062 H         1 UNK         0.3141 
     92 H92       -70.3967   27.6360  -76.3017 H         1 UNK         0.0743 
     93 H93       -69.9287   26.0456  -74.4941 H         1 UNK         0.0784 
     94 H94       -71.2768   25.0244  -74.9643 H         1 UNK         0.0784 
     95 H95       -69.8771   25.1890  -76.0245 H         1 UNK         0.0784 
     96 H96       -72.3532   25.5880  -77.1838 H         1 UNK         0.3213 
     97 H97       -73.2573   27.3672  -80.0659 H         1 UNK         0.0855 
     98 H98       -71.0209   26.6635  -80.9320 H         1 UNK         0.0814 
     99 H99       -72.2793   25.5649  -81.4692 H         1 UNK         0.0814 
    100 H100      -71.1962   25.0957  -80.1570 H         1 UNK         0.0814 
    101 H101      -73.5082   24.5895  -79.4181 H         1 UNK         0.3105 
    102 H102      -76.7260   24.8947  -78.2570 H         1 UNK         0.0547 
    103 H103      -75.4934   23.5040  -79.9494 H         1 UNK         0.0837 
    104 H104      -74.4261   22.9023  -78.6792 H         1 UNK         0.0837 
    105 H105      -76.1431   22.5387  -78.6397 H         1 UNK         0.0837 
    106 H106      -76.5099   24.2002  -76.1535 H         1 UNK         0.3020 
    107 H107      -73.8098   23.1327  -74.1394 H         1 UNK         0.1245 
    108 H108      -73.7393   25.6176  -73.7956 H         1 UNK         0.0781 
    109 H109      -75.4810   25.6763  -73.7746 H         1 UNK         0.0781 
    110 H110      -76.3116   24.8024  -70.1601 H         1 UNK         0.0836 
    111 H111      -76.9429   24.5865  -71.7679 H         1 UNK         0.0836 
    112 H112      -76.6335   23.3969  -73.6771 H         1 UNK         0.3022 
    113 H113      -77.7469   20.6366  -75.3725 H         1 UNK         0.0747 
    114 H114      -78.2336   19.3129  -73.3356 H         1 UNK         0.0793 
    115 H115      -76.5329   19.1765  -73.7377 H         1 UNK         0.0793 
    116 H116      -77.0329   20.2260  -72.4195 H         1 UNK         0.0793 
    117 H117      -79.0242   21.5951  -73.1322 H         1 UNK         0.3047 
    118 H118      -80.9897   22.7114  -73.8167 H         1 UNK         0.0822 
    119 H119      -81.0265   24.5561  -72.1853 H         1 UNK         0.0807 
    120 H120      -79.5214   25.2105  -72.8059 H         1 UNK         0.0807 
    121 H121      -79.5307   23.6715  -71.9516 H         1 UNK         0.0807 
    122 H122      -80.3039   24.9780  -75.5412 H         1 UNK         0.2946 
    123 H123      -82.2559   25.3715  -77.1093 H         1 UNK         0.1144 
    124 H124      -84.5030   26.4559  -77.1190 H         1 UNK         0.0793 
    125 H125      -84.7317   26.0519  -75.4187 H         1 UNK         0.0793 
    126 H126      -84.6434   24.7771  -76.6279 H         1 UNK         0.0793 
    127 H127      -81.9233   27.0421  -74.7708 H         1 UNK         0.2896 
@<TRIPOS>BOND
     1    1    2 1    
     2    1   67 1    
     3    1   68 1    
     4    1   69 1    
     5    2    3 2    
     6    2    4 am   BACKBONE|DICT|INTERRES
     7    4    5 1    
     8    4   70 1    
     9    5    6 1    
    10    5   65 1    
    11    5   71 1    
    12    6    7 1    
    13    6   72 1    
    14    6   73 1    
    15    7    8 1    
    16    8    9 1    
    17    8   74 1    
    18    8   75 1    
    19    9   10 ar   
    20    9   14 ar   
    21   10   11 ar   
    22   10   76 1    
    23   11   12 ar   
    24   11   48 1    
    25   12   13 ar   
    26   12   77 1    
    27   13   14 ar   
    28   13   15 1    
    29   14   78 1    
    30   15   16 1    
    31   15   79 1    
    32   15   80 1    
    33   16   17 1    
    34   17   18 1    
    35   17   81 1    
    36   17   82 1    
    37   18   19 1    
    38   18   22 1    
    39   18   83 1    
    40   19   20 am   BACKBONE|DICT|INTERRES
    41   19   21 2    
    42   20   84 1    
    43   20   85 1    
    44   22   23 am   BACKBONE|DICT|INTERRES
    45   22   86 1    
    46   23   24 2    
    47   23   25 1    
    48   25   26 1    
    49   25   27 1    
    50   25   87 1    
    51   26   88 1    
    52   26   89 1    
    53   26   90 1    
    54   27   28 am   BACKBONE|DICT|INTERRES
    55   27   91 1    
    56   28   29 2    
    57   28   30 1    
    58   30   31 1    
    59   30   32 1    
    60   30   92 1    
    61   31   93 1    
    62   31   94 1    
    63   31   95 1    
    64   32   33 am   BACKBONE|DICT|INTERRES
    65   32   96 1    
    66   33   34 2    
    67   33   35 1    
    68   35   36 1    
    69   35   37 1    
    70   35   97 1    
    71   36   98 1    
    72   36   99 1    
    73   36  100 1    
    74   37   38 am   BACKBONE|DICT|INTERRES
    75   37  101 1    
    76   38   39 2    
    77   38   40 1    
    78   40   41 1    
    79   40   42 1    
    80   40  102 1    
    81   41  103 1    
    82   41  104 1    
    83   41  105 1    
    84   42   43 am   BACKBONE|DICT|INTERRES
    85   42  106 1    
    86   43   44 2    
    87   43   45 1    
    88   45   46 1    
    89   45   49 1    
    90   45  107 1    
    91   46   47 1    
    92   46  108 1    
    93   46  109 1    
    94   47   48 1    
    95   48  110 1    
    96   48  111 1    
    97   49   50 am   BACKBONE|DICT|INTERRES
    98   49  112 1    
    99   50   51 2    
   100   50   52 1    
   101   52   53 1    
   102   52   54 1    
   103   52  113 1    
   104   53  114 1    
   105   53  115 1    
   106   53  116 1    
   107   54   55 am   BACKBONE|DICT|INTERRES
   108   54  117 1    
   109   55   56 2    
   110   55   57 1    
   111   57   58 1    
   112   57   59 1    
   113   57  118 1    
   114   58  119 1    
   115   58  120 1    
   116   58  121 1    
   117   59   60 am   BACKBONE|DICT|INTERRES
   118   59  122 1    
   119   60   61 2    
   120   60   62 1    
   121   62   63 1    
   122   62   64 1    
   123   62  123 1    
   124   63  124 1    
   125   63  125 1    
   126   63  126 1    
   127   64   65 am   BACKBONE|DICT|INTERRES
   128   64  127 1    
   129   65   66 2    
@<TRIPOS>SUBSTRUCTURE
     1 UNK         1 GROUP             0       ****    0 ROOT    
