@<TRIPOS>MOLECULE
3R135
127   129    1
SMALL
USER_CHARGES


@<TRIPOS>ATOM
      1 CA        -77.6506   23.2947  -77.6626 C.3       0 UNK        -0.1998 
      2 C         -77.8372   22.6658  -76.2897 C.2       0 UNK         0.4909 
      3 O         -77.7091   21.4507  -76.1464 O.2       0 UNK        -0.5240 
      4 N         -78.1573   23.4842  -75.2813 N.am      1 UNK        -0.4739 
      5 CA        -78.3880   23.0839  -73.8858 C.3       1 UNK         0.0864 
      6 C6        -78.0555   24.2413  -72.9065 C.3       11 UNK        -0.0881 
      7 S7        -76.3131   24.7906  -72.9906 S.3       11 UNK        -0.2682 
      8 C8        -76.1039   25.6101  -71.3650 C.3       11 UNK         0.0289 
      9 C9        -76.3077   27.1255  -71.3944 C.ar      11 UNK        -0.0687 
     10 C10       -77.3013   27.7110  -72.1831 C.ar      11 UNK        -0.0823 
     11 C11       -77.4610   29.0966  -72.2346 C.ar      11 UNK        -0.0830 
     12 C12       -76.6579   29.9089  -71.4281 C.ar      11 UNK        -0.1021 
     13 C13       -75.6808   29.3407  -70.6033 C.ar      11 UNK        -0.0753 
     14 C14       -75.5045   27.9520  -70.6007 C.ar      11 UNK        -0.0933 
     15 C15       -74.8353   30.2165  -69.6878 C.3       11 UNK         0.0166 
     16 S16       -73.1761   30.5348  -70.3679 S.3       11 UNK        -0.2615 
     17 C17       -73.5099   31.8453  -71.5984 C.3       11 UNK        -0.0865 
     18 CA        -73.6489   31.2912  -73.0438 C.3       10 UNK         0.0862 
     19 C         -74.1039   32.3687  -74.0751 C.2       10 UNK         0.5551 
     20 N         -73.7729   32.2289  -75.3533 N.am      10 UNK        -0.7319 
     21 O         -74.7836   33.3293  -73.7223 O.2       10 UNK        -0.5018 
     22 N         -72.4928   30.4790  -73.4599 N.am      10 UNK        -0.4509 
     23 C         -71.2411   30.9074  -73.6768 C.2       10 UNK         0.4899 
     24 O         -70.9053   32.0906  -73.6134 O.2       10 UNK        -0.4839 
     25 CA        -70.1711   29.8387  -73.9952 C.3       9 UNK         0.0222 
     26 CB        -68.8858   30.0775  -73.1816 C.3       9 UNK        -0.1966 
     27 N         -70.6380   28.4702  -73.7436 N.am      9 UNK        -0.4218 
     28 C         -71.3583   27.7296  -74.5952 C.2       9 UNK         0.5020 
     29 O         -71.6239   28.0799  -75.7468 O.2       9 UNK        -0.5274 
     30 CA        -71.8932   26.4041  -74.0337 C.3       8 UNK         0.0270 
     31 CB        -72.8100   26.6411  -72.8175 C.3       8 UNK        -0.1976 
     32 N         -72.6675   25.6949  -75.0495 N.am      8 UNK        -0.4313 
     33 C         -72.4890   24.4197  -75.4135 C.2       8 UNK         0.5041 
     34 O         -71.6005   23.7009  -74.9514 O.2       8 UNK        -0.5577 
     35 CA        -73.4619   23.8150  -76.4452 C.3       7 UNK         0.0284 
     36 CB        -74.3026   22.6979  -75.8050 C.3       7 UNK        -0.1958 
     37 N         -74.3560   24.8021  -77.0608 N.am      7 UNK        -0.4454 
     38 C         -74.0255   25.5557  -78.1175 C.2       7 UNK         0.5089 
     39 O         -72.9567   25.4463  -78.7194 O.2       7 UNK        -0.5125 
     40 CA        -75.0425   26.6101  -78.6034 C.3       6 UNK         0.0408 
     41 CB        -75.7719   26.1040  -79.8591 C.3       6 UNK        -0.1791 
     42 N         -76.0426   27.0807  -77.6334 N.am      6 UNK        -0.4762 
     43 C         -75.8022   27.6029  -76.4208 C.2       6 UNK         0.5007 
     44 O         -74.6987   27.5739  -75.8804 O.2       6 UNK        -0.5032 
     45 CA        -76.9678   28.2991  -75.6850 C.3       5 UNK         0.0783 
     46 C46       -76.5691   29.7500  -75.3111 C.3       11 UNK        -0.0857 
     47 S47       -77.8254   30.7689  -74.4546 S.3       11 UNK        -0.2512 
     48 C48       -78.5202   29.6952  -73.1522 C.3       11 UNK         0.0225 
     49 N         -78.2416   28.2425  -76.4109 N.am      5 UNK        -0.4615 
     50 C         -79.0694   27.1942  -76.3826 C.2       4 UNK         0.5053 
     51 O         -78.8072   26.1333  -75.8135 O.2       4 UNK        -0.5105 
     52 CA        -80.3839   27.3367  -77.1636 C.3       4 UNK         0.0263 
     53 CB        -80.1758   26.9131  -78.6270 C.3       4 UNK        -0.1981 
     54 N         -81.4494   26.5205  -76.5787 N.am      4 UNK        -0.4224 
     55 C         -82.0284   26.7495  -75.3900 C.2       3 UNK         0.4895 
     56 O         -81.7825   27.7216  -74.6755 O.2       3 UNK        -0.5091 
     57 CA        -83.0316   25.6936  -74.9141 C.3       3 UNK         0.0250 
     58 CB        -84.3374   25.7674  -75.7332 C.3       3 UNK        -0.1996 
     59 N         -82.4090   24.3724  -74.9983 N.am      3 UNK        -0.4254 
     60 C         -82.8947   23.2252  -74.5067 C.2       2 UNK         0.5004 
     61 O         -83.9760   23.1227  -73.9267 O.2       2 UNK        -0.5226 
     62 CA        -82.0141   21.9761  -74.6892 C.3       2 UNK         0.0269 
     63 CB        -82.3993   21.2307  -75.9774 C.3       2 UNK        -0.1926 
     64 N         -80.5864   22.3073  -74.7326 N.am      2 UNK        -0.4687 
     65 C         -79.8338   22.5752  -73.6552 C.2       1 UNK         0.5165 
     66 O         -80.2592   22.4587  -72.5046 O.2       1 UNK        -0.5079 
     67 H67       -77.7239   24.3809  -77.6247 H         1 UNK         0.0900 
     68 H68       -78.4119   22.9273  -78.3500 H         1 UNK         0.0900 
     69 H69       -76.6734   23.0346  -78.0680 H         1 UNK         0.0900 
     70 H70       -78.2951   24.4784  -75.4664 H         1 UNK         0.2959 
     71 H71       -77.7283   22.2458  -73.6503 H         1 UNK         0.1079 
     72 H72       -78.7137   25.0881  -73.1016 H         1 UNK         0.0837 
     73 H73       -78.2539   23.9321  -71.8788 H         1 UNK         0.0837 
     74 H74       -76.7807   25.1754  -70.6292 H         1 UNK         0.0685 
     75 H75       -75.0968   25.3841  -71.0127 H         1 UNK         0.0685 
     76 H76       -77.9471   27.0889  -72.7814 H         1 UNK         0.1434 
     77 H77       -76.7932   30.9818  -71.4469 H         1 UNK         0.1329 
     78 H78       -74.7428   27.5152  -69.9691 H         1 UNK         0.1335 
     79 H79       -75.3399   31.1609  -69.4780 H         1 UNK         0.0680 
     80 H80       -74.7224   29.7188  -68.7235 H         1 UNK         0.0680 
     81 H81       -72.7004   32.5754  -71.5518 H         1 UNK         0.1032 
     82 H82       -74.4118   32.3841  -71.3034 H         1 UNK         0.1032 
     83 H83       -74.4772   30.5870  -73.0160 H         1 UNK         0.0461 
     84 H84       -73.2129   31.4465  -75.6516 H         1 UNK         0.3453 
     85 H85       -74.0714   32.9230  -76.0197 H         1 UNK         0.3453 
     86 H86       -72.6746   29.4926  -73.5611 H         1 UNK         0.2984 
     87 H87       -69.9215   29.9407  -75.0533 H         1 UNK         0.0554 
     88 H88       -68.1224   29.3357  -73.4167 H         1 UNK         0.0847 
     89 H89       -69.0747   30.0385  -72.1080 H         1 UNK         0.0847 
     90 H90       -68.4570   31.0563  -73.4008 H         1 UNK         0.0847 
     91 H91       -70.4687   28.1082  -72.8154 H         1 UNK         0.3141 
     92 H92       -71.0305   25.8123  -73.7214 H         1 UNK         0.0743 
     93 H93       -73.6804   27.2450  -73.0800 H         1 UNK         0.0784 
     94 H94       -73.1747   25.6938  -72.4214 H         1 UNK         0.0784 
     95 H95       -72.2919   27.1462  -72.0018 H         1 UNK         0.0784 
     96 H96       -73.3689   26.2634  -75.5212 H         1 UNK         0.3213 
     97 H97       -72.8471   23.3571  -77.2232 H         1 UNK         0.0855 
     98 H98       -74.9914   23.0866  -75.0553 H         1 UNK         0.0814 
     99 H99       -73.6682   21.9614  -75.3100 H         1 UNK         0.0814 
    100 H100      -74.8815   22.1604  -76.5550 H         1 UNK         0.0814 
    101 H101      -75.2332   24.9851  -76.5961 H         1 UNK         0.3105 
    102 H102      -74.4580   27.4869  -78.8894 H         1 UNK         0.0547 
    103 H103      -75.0615   25.7831  -80.6225 H         1 UNK         0.0837 
    104 H104      -76.4158   25.2527  -79.6384 H         1 UNK         0.0837 
    105 H105      -76.3873   26.8851  -80.3058 H         1 UNK         0.0837 
    106 H106      -76.9896   27.1486  -77.9749 H         1 UNK         0.3020 
    107 H107      -77.0780   27.7294  -74.7664 H         1 UNK         0.1245 
    108 H108      -76.2713   30.3002  -76.2059 H         1 UNK         0.0781 
    109 H109      -75.6866   29.7278  -74.6731 H         1 UNK         0.0781 
    110 H110      -79.1213   28.9150  -73.6225 H         1 UNK         0.0836 
    111 H111      -79.2141   30.2836  -72.5504 H         1 UNK         0.0836 
    112 H112      -78.5134   29.0820  -76.9029 H         1 UNK         0.3022 
    113 H113      -80.6996   28.3820  -77.1361 H         1 UNK         0.0747 
    114 H114      -81.0930   27.0235  -79.2059 H         1 UNK         0.0793 
    115 H115      -79.4165   27.5285  -79.1115 H         1 UNK         0.0793 
    116 H116      -79.8527   25.8739  -78.7062 H         1 UNK         0.0793 
    117 H117      -81.7311   25.7077  -77.1062 H         1 UNK         0.3047 
    118 H118      -83.2604   25.8974  -73.8658 H         1 UNK         0.0822 
    119 H119      -85.1098   25.1210  -75.3170 H         1 UNK         0.0807 
    120 H120      -84.1837   25.4748  -76.7723 H         1 UNK         0.0807 
    121 H121      -84.7397   26.7814  -75.7346 H         1 UNK         0.0807 
    122 H122      -81.4788   24.3544  -75.3922 H         1 UNK         0.2946 
    123 H123      -82.2003   21.3137  -73.8402 H         1 UNK         0.1144 
    124 H124      -81.8230   20.3122  -76.0909 H         1 UNK         0.0793 
    125 H125      -82.2356   21.8422  -76.8656 H         1 UNK         0.0793 
    126 H126      -83.4537   20.9504  -75.9646 H         1 UNK         0.0793 
    127 H127      -80.1522   22.3798  -75.6413 H         1 UNK         0.2896 
@<TRIPOS>BOND
     1    1    2 1    
     2    1   67 1    
     3    1   68 1    
     4    1   69 1    
     5    2    3 2    
     6    2    4 am   BACKBONE|DICT|INTERRES
     7    4    5 1    
     8    4   70 1    
     9    5    6 1    
    10    5   65 1    
    11    5   71 1    
    12    6    7 1    
    13    6   72 1    
    14    6   73 1    
    15    7    8 1    
    16    8    9 1    
    17    8   74 1    
    18    8   75 1    
    19    9   10 ar   
    20    9   14 ar   
    21   10   11 ar   
    22   10   76 1    
    23   11   12 ar   
    24   11   48 1    
    25   12   13 ar   
    26   12   77 1    
    27   13   14 ar   
    28   13   15 1    
    29   14   78 1    
    30   15   16 1    
    31   15   79 1    
    32   15   80 1    
    33   16   17 1    
    34   17   18 1    
    35   17   81 1    
    36   17   82 1    
    37   18   19 1    
    38   18   22 1    
    39   18   83 1    
    40   19   20 am   BACKBONE|DICT|INTERRES
    41   19   21 2    
    42   20   84 1    
    43   20   85 1    
    44   22   23 am   BACKBONE|DICT|INTERRES
    45   22   86 1    
    46   23   24 2    
    47   23   25 1    
    48   25   26 1    
    49   25   27 1    
    50   25   87 1    
    51   26   88 1    
    52   26   89 1    
    53   26   90 1    
    54   27   28 am   BACKBONE|DICT|INTERRES
    55   27   91 1    
    56   28   29 2    
    57   28   30 1    
    58   30   31 1    
    59   30   32 1    
    60   30   92 1    
    61   31   93 1    
    62   31   94 1    
    63   31   95 1    
    64   32   33 am   BACKBONE|DICT|INTERRES
    65   32   96 1    
    66   33   34 2    
    67   33   35 1    
    68   35   36 1    
    69   35   37 1    
    70   35   97 1    
    71   36   98 1    
    72   36   99 1    
    73   36  100 1    
    74   37   38 am   BACKBONE|DICT|INTERRES
    75   37  101 1    
    76   38   39 2    
    77   38   40 1    
    78   40   41 1    
    79   40   42 1    
    80   40  102 1    
    81   41  103 1    
    82   41  104 1    
    83   41  105 1    
    84   42   43 am   BACKBONE|DICT|INTERRES
    85   42  106 1    
    86   43   44 2    
    87   43   45 1    
    88   45   46 1    
    89   45   49 1    
    90   45  107 1    
    91   46   47 1    
    92   46  108 1    
    93   46  109 1    
    94   47   48 1    
    95   48  110 1    
    96   48  111 1    
    97   49   50 am   BACKBONE|DICT|INTERRES
    98   49  112 1    
    99   50   51 2    
   100   50   52 1    
   101   52   53 1    
   102   52   54 1    
   103   52  113 1    
   104   53  114 1    
   105   53  115 1    
   106   53  116 1    
   107   54   55 am   BACKBONE|DICT|INTERRES
   108   54  117 1    
   109   55   56 2    
   110   55   57 1    
   111   57   58 1    
   112   57   59 1    
   113   57  118 1    
   114   58  119 1    
   115   58  120 1    
   116   58  121 1    
   117   59   60 am   BACKBONE|DICT|INTERRES
   118   59  122 1    
   119   60   61 2    
   120   60   62 1    
   121   62   63 1    
   122   62   64 1    
   123   62  123 1    
   124   63  124 1    
   125   63  125 1    
   126   63  126 1    
   127   64   65 am   BACKBONE|DICT|INTERRES
   128   64  127 1    
   129   65   66 2    
@<TRIPOS>SUBSTRUCTURE
     1 UNK         1 GROUP             0       ****    0 ROOT    
