@<TRIPOS>MOLECULE
3R135
127   129    1
SMALL
USER_CHARGES


@<TRIPOS>ATOM
      1 CA        -76.6642   28.3559  -69.0278 C.3       0 UNK        -0.1998 
      2 C         -77.2513   27.4105  -70.0639 C.2       0 UNK         0.4909 
      3 O         -76.6834   27.2715  -71.1451 O.2       0 UNK        -0.5240 
      4 N         -78.3782   26.7602  -69.7397 N.am      1 UNK        -0.4739 
      5 CA        -79.1584   25.8165  -70.5613 C.3       1 UNK         0.0864 
      6 C6        -79.6975   26.4212  -71.8866 C.3       11 UNK        -0.0881 
      7 S7        -81.0757   27.5820  -71.6018 S.3       11 UNK        -0.2682 
      8 C8        -80.2536   29.2058  -71.6295 C.3       11 UNK         0.0289 
      9 C9        -79.6950   29.5671  -72.9991 C.ar      11 UNK        -0.0687 
     10 C10       -80.5537   29.7819  -74.0797 C.ar      11 UNK        -0.0823 
     11 C11       -80.0447   30.1555  -75.3267 C.ar      11 UNK        -0.0830 
     12 C12       -78.6672   30.3431  -75.4805 C.ar      11 UNK        -0.1021 
     13 C13       -77.7922   30.1096  -74.4135 C.ar      11 UNK        -0.0753 
     14 C14       -78.3177   29.7152  -73.1781 C.ar      11 UNK        -0.0933 
     15 C15       -76.2860   30.2488  -74.6175 C.3       11 UNK         0.0166 
     16 S16       -75.5115   31.4639  -73.5003 S.3       11 UNK        -0.2615 
     17 C17       -74.9745   30.4119  -72.1037 C.3       11 UNK        -0.0865 
     18 CA        -73.4563   30.1002  -72.1141 C.3       10 UNK         0.0862 
     19 C         -73.0579   29.3325  -70.8174 C.2       10 UNK         0.5551 
     20 N         -72.6871   28.0582  -70.8767 N.am      10 UNK        -0.7319 
     21 O         -73.0868   29.9118  -69.7346 O.2       10 UNK        -0.5018 
     22 N         -73.0578   29.4297  -73.3602 N.am      10 UNK        -0.4509 
     23 C         -71.8013   29.2704  -73.7916 C.2       10 UNK         0.4899 
     24 O         -70.8252   29.7985  -73.2566 O.2       10 UNK        -0.4839 
     25 CA        -71.6045   28.3639  -75.0270 C.3       9 UNK         0.0222 
     26 CB        -70.2437   27.6372  -75.0052 C.3       9 UNK        -0.1966 
     27 N         -72.6919   27.3979  -75.2569 N.am      9 UNK        -0.4218 
     28 C         -73.1377   26.4545  -74.4082 C.2       9 UNK         0.5020 
     29 O         -72.6960   26.3019  -73.2682 O.2       9 UNK        -0.5274 
     30 CA        -74.3015   25.5574  -74.8734 C.3       8 UNK         0.0270 
     31 CB        -75.6188   26.0420  -74.2439 C.3       8 UNK        -0.1976 
     32 N         -74.4838   25.4812  -76.3235 N.am      8 UNK        -0.4313 
     33 C         -73.5947   25.0075  -77.2069 C.2       8 UNK         0.5041 
     34 O         -72.5253   24.4814  -76.8970 O.2       8 UNK        -0.5577 
     35 CA        -73.9351   25.2110  -78.6946 C.3       7 UNK         0.0284 
     36 CB        -74.7645   24.0312  -79.2257 C.3       7 UNK        -0.1958 
     37 N         -74.6477   26.4673  -78.9592 N.am      7 UNK        -0.4454 
     38 C         -74.1998   27.6999  -78.6813 C.2       7 UNK         0.5089 
     39 O         -73.0984   27.9286  -78.1821 O.2       7 UNK        -0.5125 
     40 CA        -75.1587   28.8776  -78.9339 C.3       6 UNK         0.0408 
     41 CB        -75.1877   29.2763  -80.4223 C.3       6 UNK        -0.1791 
     42 N         -76.5063   28.6649  -78.3836 N.am      6 UNK        -0.4762 
     43 C         -77.4401   27.7905  -78.7847 C.2       6 UNK         0.5007 
     44 O         -77.3226   27.0656  -79.7763 O.2       6 UNK        -0.5032 
     45 CA        -78.7101   27.6999  -77.9142 C.3       5 UNK         0.0783 
     46 C46       -79.7837   28.6779  -78.4528 C.3       11 UNK        -0.0857 
     47 S47       -81.2659   28.7802  -77.3937 S.3       11 UNK        -0.2512 
     48 C48       -80.9902   30.3472  -76.5028 C.3       11 UNK         0.0225 
     49 N         -79.2050   26.3215  -77.8239 N.am      5 UNK        -0.4615 
     50 C         -78.5063   25.2733  -77.3658 C.2       4 UNK         0.5053 
     51 O         -77.3481   25.3449  -76.9472 O.2       4 UNK        -0.5105 
     52 CA        -79.2160   23.9112  -77.4563 C.3       4 UNK         0.0263 
     53 CB        -79.0371   23.3113  -78.8612 C.3       4 UNK        -0.1981 
     54 N         -78.7568   22.9337  -76.4653 N.am      4 UNK        -0.4224 
     55 C         -78.9135   23.0394  -75.1388 C.2       3 UNK         0.4895 
     56 O         -79.4292   24.0132  -74.5865 O.2       3 UNK        -0.5091 
     57 CA        -78.5153   21.8225  -74.2797 C.3       3 UNK         0.0250 
     58 CB        -77.6980   20.7348  -75.0182 C.3       3 UNK        -0.1996 
     59 N         -77.8887   22.2456  -73.0232 N.am      3 UNK        -0.4254 
     60 C         -76.6494   22.7185  -72.8372 C.2       2 UNK         0.5004 
     61 O         -75.7779   22.7305  -73.7059 O.2       2 UNK        -0.5226 
     62 CA        -76.3471   23.2857  -71.4343 C.3       2 UNK         0.0269 
     63 CB        -74.8610   23.6419  -71.2384 C.3       2 UNK        -0.1926 
     64 N         -77.1607   24.4701  -71.1406 N.am      2 UNK        -0.4687 
     65 C         -78.4565   24.4625  -70.8055 C.2       1 UNK         0.5165 
     66 O         -79.1052   23.4221  -70.6752 O.2       1 UNK        -0.5079 
     67 H67       -75.6227   28.0992  -68.8349 H         1 UNK         0.0900 
     68 H68       -77.2054   28.3145  -68.0829 H         1 UNK         0.0900 
     69 H69       -76.6980   29.3808  -69.3959 H         1 UNK         0.0900 
     70 H70       -78.7633   26.9129  -68.8177 H         1 UNK         0.2959 
     71 H71       -80.0258   25.5655  -69.9477 H         1 UNK         0.1079 
     72 H72       -78.9059   26.8948  -72.4681 H         1 UNK         0.0837 
     73 H73       -80.0978   25.6354  -72.5302 H         1 UNK         0.0837 
     74 H74       -80.9793   29.9659  -71.3369 H         1 UNK         0.0685 
     75 H75       -79.4732   29.2274  -70.8686 H         1 UNK         0.0685 
     76 H76       -81.6192   29.6493  -73.9492 H         1 UNK         0.1434 
     77 H77       -78.2777   30.6509  -76.4407 H         1 UNK         0.1329 
     78 H78       -77.6617   29.5315  -72.3429 H         1 UNK         0.1335 
     79 H79       -75.8120   29.2761  -74.4967 H         1 UNK         0.0680 
     80 H80       -76.0712   30.5621  -75.6401 H         1 UNK         0.0680 
     81 H81       -75.2506   30.9301  -71.1832 H         1 UNK         0.1032 
     82 H82       -75.5307   29.4753  -72.0991 H         1 UNK         0.1032 
     83 H83       -72.9237   31.0526  -72.0784 H         1 UNK         0.0461 
     84 H84       -72.6726   27.5552  -71.7589 H         1 UNK         0.3453 
     85 H85       -72.4304   27.5818  -70.0278 H         1 UNK         0.3453 
     86 H86       -73.7901   28.9511  -73.8587 H         1 UNK         0.2984 
     87 H87       -71.6090   29.0297  -75.8910 H         1 UNK         0.0554 
     88 H88       -70.1116   27.0179  -75.8926 H         1 UNK         0.0847 
     89 H89       -70.1446   26.9941  -74.1300 H         1 UNK         0.0847 
     90 H90       -69.4167   28.3479  -74.9826 H         1 UNK         0.0847 
     91 H91       -73.0935   27.4303  -76.1885 H         1 UNK         0.3141 
     92 H92       -74.0873   24.5505  -74.5127 H         1 UNK         0.0743 
     93 H93       -75.9530   26.9857  -74.6720 H         1 UNK         0.0784 
     94 H94       -76.4188   25.3164  -74.3903 H         1 UNK         0.0784 
     95 H95       -75.5122   26.1885  -73.1701 H         1 UNK         0.0784 
     96 H96       -75.3961   25.7595  -76.6739 H         1 UNK         0.3213 
     97 H97       -72.9930   25.2471  -79.2455 H         1 UNK         0.0855 
     98 H98       -75.7256   23.9554  -78.7167 H         1 UNK         0.0814 
     99 H99       -74.2402   23.0867  -79.0741 H         1 UNK         0.0814 
    100 H100      -74.9564   24.1278  -80.2944 H         1 UNK         0.0814 
    101 H101      -75.5860   26.3979  -79.3453 H         1 UNK         0.3105 
    102 H102      -74.7552   29.7297  -78.3840 H         1 UNK         0.0547 
    103 H103      -74.1903   29.5526  -80.7665 H         1 UNK         0.0837 
    104 H104      -75.5329   28.4647  -81.0630 H         1 UNK         0.0837 
    105 H105      -75.8370   30.1353  -80.5902 H         1 UNK         0.0837 
    106 H106      -76.7012   29.2060  -77.5542 H         1 UNK         0.3020 
    107 H107      -78.4433   27.9900  -76.8965 H         1 UNK         0.1245 
    108 H108      -80.1070   28.3701  -79.4493 H         1 UNK         0.0781 
    109 H109      -79.3694   29.6804  -78.5755 H         1 UNK         0.0781 
    110 H110      -81.9520   30.7161  -76.1429 H         1 UNK         0.0836 
    111 H111      -80.6143   31.1126  -77.1834 H         1 UNK         0.0836 
    112 H112      -80.1411   26.1716  -78.1696 H         1 UNK         0.3022 
    113 H113      -80.2818   24.0739  -77.2819 H         1 UNK         0.0747 
    114 H114      -79.3820   24.0019  -79.6322 H         1 UNK         0.0793 
    115 H115      -77.9915   23.0862  -79.0735 H         1 UNK         0.0793 
    116 H116      -79.6090   22.3903  -78.9764 H         1 UNK         0.0793 
    117 H117      -78.2982   22.1103  -76.8251 H         1 UNK         0.3047 
    118 H118      -79.4582   21.3598  -73.9846 H         1 UNK         0.0822 
    119 H119      -77.4044   19.9359  -74.3371 H         1 UNK         0.0807 
    120 H120      -76.7890   21.1334  -75.4700 H         1 UNK         0.0807 
    121 H121      -78.2849   20.2714  -75.8121 H         1 UNK         0.0807 
    122 H122      -78.5294   22.3629  -72.2436 H         1 UNK         0.2946 
    123 H123      -76.5940   22.5033  -70.7129 H         1 UNK         0.1144 
    124 H124      -74.5376   24.4331  -71.9146 H         1 UNK         0.0793 
    125 H125      -74.2244   22.7759  -71.4243 H         1 UNK         0.0793 
    126 H126      -74.6645   23.9748  -70.2193 H         1 UNK         0.0793 
    127 H127      -76.7219   25.3805  -71.2555 H         1 UNK         0.2896 
@<TRIPOS>BOND
     1    1    2 1    
     2    1   67 1    
     3    1   68 1    
     4    1   69 1    
     5    2    3 2    
     6    2    4 am   BACKBONE|DICT|INTERRES
     7    4    5 1    
     8    4   70 1    
     9    5    6 1    
    10    5   65 1    
    11    5   71 1    
    12    6    7 1    
    13    6   72 1    
    14    6   73 1    
    15    7    8 1    
    16    8    9 1    
    17    8   74 1    
    18    8   75 1    
    19    9   10 ar   
    20    9   14 ar   
    21   10   11 ar   
    22   10   76 1    
    23   11   12 ar   
    24   11   48 1    
    25   12   13 ar   
    26   12   77 1    
    27   13   14 ar   
    28   13   15 1    
    29   14   78 1    
    30   15   16 1    
    31   15   79 1    
    32   15   80 1    
    33   16   17 1    
    34   17   18 1    
    35   17   81 1    
    36   17   82 1    
    37   18   19 1    
    38   18   22 1    
    39   18   83 1    
    40   19   20 am   BACKBONE|DICT|INTERRES
    41   19   21 2    
    42   20   84 1    
    43   20   85 1    
    44   22   23 am   BACKBONE|DICT|INTERRES
    45   22   86 1    
    46   23   24 2    
    47   23   25 1    
    48   25   26 1    
    49   25   27 1    
    50   25   87 1    
    51   26   88 1    
    52   26   89 1    
    53   26   90 1    
    54   27   28 am   BACKBONE|DICT|INTERRES
    55   27   91 1    
    56   28   29 2    
    57   28   30 1    
    58   30   31 1    
    59   30   32 1    
    60   30   92 1    
    61   31   93 1    
    62   31   94 1    
    63   31   95 1    
    64   32   33 am   BACKBONE|DICT|INTERRES
    65   32   96 1    
    66   33   34 2    
    67   33   35 1    
    68   35   36 1    
    69   35   37 1    
    70   35   97 1    
    71   36   98 1    
    72   36   99 1    
    73   36  100 1    
    74   37   38 am   BACKBONE|DICT|INTERRES
    75   37  101 1    
    76   38   39 2    
    77   38   40 1    
    78   40   41 1    
    79   40   42 1    
    80   40  102 1    
    81   41  103 1    
    82   41  104 1    
    83   41  105 1    
    84   42   43 am   BACKBONE|DICT|INTERRES
    85   42  106 1    
    86   43   44 2    
    87   43   45 1    
    88   45   46 1    
    89   45   49 1    
    90   45  107 1    
    91   46   47 1    
    92   46  108 1    
    93   46  109 1    
    94   47   48 1    
    95   48  110 1    
    96   48  111 1    
    97   49   50 am   BACKBONE|DICT|INTERRES
    98   49  112 1    
    99   50   51 2    
   100   50   52 1    
   101   52   53 1    
   102   52   54 1    
   103   52  113 1    
   104   53  114 1    
   105   53  115 1    
   106   53  116 1    
   107   54   55 am   BACKBONE|DICT|INTERRES
   108   54  117 1    
   109   55   56 2    
   110   55   57 1    
   111   57   58 1    
   112   57   59 1    
   113   57  118 1    
   114   58  119 1    
   115   58  120 1    
   116   58  121 1    
   117   59   60 am   BACKBONE|DICT|INTERRES
   118   59  122 1    
   119   60   61 2    
   120   60   62 1    
   121   62   63 1    
   122   62   64 1    
   123   62  123 1    
   124   63  124 1    
   125   63  125 1    
   126   63  126 1    
   127   64   65 am   BACKBONE|DICT|INTERRES
   128   64  127 1    
   129   65   66 2    
@<TRIPOS>SUBSTRUCTURE
     1 UNK         1 GROUP             0       ****    0 ROOT    
