@<TRIPOS>MOLECULE
3R135
127   129    1
SMALL
USER_CHARGES


@<TRIPOS>ATOM
      1 CA        -78.8254   29.7972  -77.2286 C.3       0 UNK        -0.1998 
      2 C         -78.9920   28.9365  -75.9861 C.2       0 UNK         0.4909 
      3 O         -78.1569   28.0697  -75.7236 O.2       0 UNK        -0.5240 
      4 N         -80.0659   29.1781  -75.2261 N.am      1 UNK        -0.4739 
      5 CA        -80.4566   28.3916  -74.0558 C.3       1 UNK         0.0864 
      6 C6        -81.4273   29.2047  -73.1597 C.3       11 UNK        -0.0881 
      7 S7        -81.5775   28.5497  -71.4627 S.3       11 UNK        -0.2682 
      8 C8        -80.3715   29.5769  -70.5593 C.3       11 UNK         0.0289 
      9 C9        -78.9509   29.2810  -71.0132 C.ar      11 UNK        -0.0687 
     10 C10       -78.3633   28.0546  -70.6927 C.ar      11 UNK        -0.0823 
     11 C11       -77.0932   27.7308  -71.1736 C.ar      11 UNK        -0.0830 
     12 C12       -76.3967   28.6564  -71.9559 C.ar      11 UNK        -0.1021 
     13 C13       -76.9640   29.8952  -72.2657 C.ar      11 UNK        -0.0753 
     14 C14       -78.2423   30.2040  -71.7899 C.ar      11 UNK        -0.0933 
     15 C15       -76.2159   30.8803  -73.1520 C.3       11 UNK         0.0166 
     16 S16       -75.2019   32.0477  -72.1875 S.3       11 UNK        -0.2615 
     17 C17       -73.7642   31.0129  -71.7449 C.3       11 UNK        -0.0865 
     18 CA        -72.7822   30.8136  -72.9448 C.3       10 UNK         0.0862 
     19 C         -71.4064   31.5299  -72.7757 C.2       10 UNK         0.5551 
     20 N         -70.3147   30.9955  -73.3124 N.am      10 UNK        -0.7319 
     21 O         -71.3267   32.6016  -72.1800 O.2       10 UNK        -0.5018 
     22 N         -72.6913   29.4119  -73.3848 N.am      10 UNK        -0.4509 
     23 C         -72.1976   28.3865  -72.6743 C.2       10 UNK         0.4899 
     24 O         -71.8579   28.4776  -71.4947 O.2       10 UNK        -0.4839 
     25 CA        -72.0406   27.0253  -73.3851 C.3       9 UNK         0.0222 
     26 CB        -73.0577   26.0117  -72.8450 C.3       9 UNK        -0.1966 
     27 N         -72.1526   27.0901  -74.8465 N.am      9 UNK        -0.4218 
     28 C         -71.2563   27.6859  -75.6466 C.2       9 UNK         0.5020 
     29 O         -70.2115   28.1987  -75.2414 O.2       9 UNK        -0.5274 
     30 CA        -71.6047   27.7722  -77.1419 C.3       8 UNK         0.0270 
     31 CB        -71.1528   26.4985  -77.8736 C.3       8 UNK        -0.1976 
     32 N         -73.0256   28.0066  -77.4181 N.am      8 UNK        -0.4313 
     33 C         -73.7820   29.0090  -76.9530 C.2       8 UNK         0.5041 
     34 O         -73.3703   29.8639  -76.1697 O.2       8 UNK        -0.5577 
     35 CA        -75.2496   29.0745  -77.4147 C.3       7 UNK         0.0284 
     36 CB        -75.3734   29.8741  -78.7266 C.3       7 UNK        -0.1958 
     37 N         -75.9307   27.7732  -77.5030 N.am      7 UNK        -0.4454 
     38 C         -75.6787   26.7460  -78.3270 C.2       7 UNK         0.5089 
     39 O         -74.8163   26.7755  -79.2074 O.2       7 UNK        -0.5125 
     40 CA        -76.4799   25.4516  -78.0812 C.3       6 UNK         0.0408 
     41 CB        -75.8918   24.2464  -78.8426 C.3       6 UNK        -0.1791 
     42 N         -76.6388   25.1054  -76.6631 N.am      6 UNK        -0.4762 
     43 C         -75.6829   25.0155  -75.7218 C.2       6 UNK         0.5007 
     44 O         -74.4993   25.3204  -75.8875 O.2       6 UNK        -0.5032 
     45 CA        -76.1382   24.4799  -74.3553 C.3       5 UNK         0.0783 
     46 C46       -76.8998   25.5739  -73.5727 C.3       11 UNK        -0.0857 
     47 S47       -77.2940   25.0602  -71.8673 S.3       11 UNK        -0.2512 
     48 C48       -76.4948   26.3645  -70.8773 C.3       11 UNK         0.0225 
     49 N         -76.9362   23.2651  -74.5335 N.am      5 UNK        -0.4615 
     50 C         -76.4299   22.0323  -74.6684 C.2       4 UNK         0.5053 
     51 O         -75.2252   21.7824  -74.6231 O.2       4 UNK        -0.5105 
     52 CA        -77.4242   20.8717  -74.8658 C.3       4 UNK         0.0263 
     53 CB        -77.6642   20.1457  -73.5318 C.3       4 UNK        -0.1981 
     54 N         -78.7129   21.3052  -75.4091 N.am      4 UNK        -0.4224 
     55 C         -78.9339   21.6179  -76.6940 C.2       3 UNK         0.4895 
     56 O         -78.1024   21.4671  -77.5885 O.2       3 UNK        -0.5091 
     57 CA        -80.3087   22.2267  -77.0363 C.3       3 UNK         0.0250 
     58 CB        -81.2715   21.1358  -77.5322 C.3       3 UNK        -0.1996 
     59 N         -80.9318   22.9582  -75.9238 N.am      3 UNK        -0.4254 
     60 C         -80.4038   24.0429  -75.3401 C.2       2 UNK         0.5004 
     61 O         -79.3288   24.5393  -75.6849 O.2       2 UNK        -0.5226 
     62 CA        -81.1577   24.6017  -74.1205 C.3       2 UNK         0.0269 
     63 CB        -80.9169   23.7097  -72.8905 C.3       2 UNK        -0.1926 
     64 N         -80.7368   25.9659  -73.7941 N.am      2 UNK        -0.4687 
     65 C         -81.0673   27.0490  -74.5078 C.2       1 UNK         0.5165 
     66 O         -81.8410   27.0234  -75.4698 O.2       1 UNK        -0.5079 
     67 H67       -78.0216   30.5175  -77.0828 H         1 UNK         0.0900 
     68 H68       -79.7353   30.3485  -77.4650 H         1 UNK         0.0900 
     69 H69       -78.5805   29.1730  -78.0873 H         1 UNK         0.0900 
     70 H70       -80.7293   29.8804  -75.5196 H         1 UNK         0.2959 
     71 H71       -79.5460   28.1787  -73.4917 H         1 UNK         0.1079 
     72 H72       -81.0919   30.2408  -73.0904 H         1 UNK         0.0837 
     73 H73       -82.4229   29.2514  -73.6057 H         1 UNK         0.0837 
     74 H74       -80.6158   30.6322  -70.6905 H         1 UNK         0.0685 
     75 H75       -80.4591   29.3712  -69.4916 H         1 UNK         0.0685 
     76 H76       -78.9139   27.3335  -70.1037 H         1 UNK         0.1434 
     77 H77       -75.4190   28.4059  -72.3422 H         1 UNK         0.1329 
     78 H78       -78.6935   31.1529  -72.0455 H         1 UNK         0.1335 
     79 H79       -75.5881   30.3475  -73.8683 H         1 UNK         0.0680 
     80 H80       -76.9305   31.4499  -73.7481 H         1 UNK         0.0680 
     81 H81       -74.1224   30.0634  -71.3508 H         1 UNK         0.1032 
     82 H82       -73.2701   31.4814  -70.8921 H         1 UNK         0.1032 
     83 H83       -73.2039   31.3186  -73.8142 H         1 UNK         0.0461 
     84 H84       -69.4311   31.4690  -73.2103 H         1 UNK         0.3453 
     85 H85       -70.3672   30.1273  -73.8268 H         1 UNK         0.3453 
     86 H86       -72.9093   29.2742  -74.3678 H         1 UNK         0.2984 
     87 H87       -71.0415   26.6552  -73.1458 H         1 UNK         0.0554 
     88 H88       -72.9048   25.0245  -73.2814 H         1 UNK         0.0847 
     89 H89       -74.0758   26.3259  -73.0634 H         1 UNK         0.0847 
     90 H90       -72.9703   25.9041  -71.7629 H         1 UNK         0.0847 
     91 H91       -72.9718   26.6651  -75.2702 H         1 UNK         0.3141 
     92 H92       -71.0543   28.6197  -77.5551 H         1 UNK         0.0743 
     93 H93       -71.7089   25.6224  -77.5359 H         1 UNK         0.0784 
     94 H94       -71.2933   26.5888  -78.9510 H         1 UNK         0.0784 
     95 H95       -70.0937   26.3017  -77.7008 H         1 UNK         0.0784 
     96 H96       -73.4769   27.3740  -78.0755 H         1 UNK         0.3213 
     97 H97       -75.7846   29.6265  -76.6406 H         1 UNK         0.0855 
     98 H98       -74.9798   30.8837  -78.6017 H         1 UNK         0.0814 
     99 H99       -76.4111   29.9686  -79.0440 H         1 UNK         0.0814 
    100 H100      -74.8168   29.4115  -79.5421 H         1 UNK         0.0814 
    101 H101      -76.6608   27.6366  -76.8048 H         1 UNK         0.3105 
    102 H102      -77.4838   25.6344  -78.4667 H         1 UNK         0.0547 
    103 H103      -75.8579   24.4359  -79.9161 H         1 UNK         0.0837 
    104 H104      -74.8750   24.0234  -78.5169 H         1 UNK         0.0837 
    105 H105      -76.4942   23.3509  -78.6936 H         1 UNK         0.0837 
    106 H106      -77.5928   24.8925  -76.3756 H         1 UNK         0.3020 
    107 H107      -75.2387   24.2241  -73.7916 H         1 UNK         0.1245 
    108 H108      -77.8324   25.8403  -74.0696 H         1 UNK         0.0781 
    109 H109      -76.3161   26.4925  -73.5563 H         1 UNK         0.0781 
    110 H110      -75.4200   26.3591  -71.0584 H         1 UNK         0.0836 
    111 H111      -76.6243   26.1340  -69.8188 H         1 UNK         0.0836 
    112 H112      -77.9298   23.4098  -74.6564 H         1 UNK         0.3022 
    113 H113      -76.9711   20.1641  -75.5636 H         1 UNK         0.0747 
    114 H114      -78.3175   19.2825  -73.6610 H         1 UNK         0.0793 
    115 H115      -76.7257   19.7795  -73.1130 H         1 UNK         0.0793 
    116 H116      -78.1171   20.8036  -72.7887 H         1 UNK         0.0793 
    117 H117      -79.4660   21.4337  -74.7497 H         1 UNK         0.3047 
    118 H118      -80.1500   22.9388  -77.8493 H         1 UNK         0.0822 
    119 H119      -82.2160   21.5628  -77.8703 H         1 UNK         0.0807 
    120 H120      -81.4915   20.4050  -76.7529 H         1 UNK         0.0807 
    121 H121      -80.8441   20.5927  -78.3765 H         1 UNK         0.0807 
    122 H122      -81.8116   22.5968  -75.5827 H         1 UNK         0.2946 
    123 H123      -82.2258   24.6136  -74.3499 H         1 UNK         0.1144 
    124 H124      -81.2893   22.6979  -73.0548 H         1 UNK         0.0793 
    125 H125      -81.4316   24.0995  -72.0119 H         1 UNK         0.0793 
    126 H126      -79.8566   23.6312  -72.6477 H         1 UNK         0.0793 
    127 H127      -80.0891   26.0658  -73.0257 H         1 UNK         0.2896 
@<TRIPOS>BOND
     1    1    2 1    
     2    1   67 1    
     3    1   68 1    
     4    1   69 1    
     5    2    3 2    
     6    2    4 am   BACKBONE|DICT|INTERRES
     7    4    5 1    
     8    4   70 1    
     9    5    6 1    
    10    5   65 1    
    11    5   71 1    
    12    6    7 1    
    13    6   72 1    
    14    6   73 1    
    15    7    8 1    
    16    8    9 1    
    17    8   74 1    
    18    8   75 1    
    19    9   10 ar   
    20    9   14 ar   
    21   10   11 ar   
    22   10   76 1    
    23   11   12 ar   
    24   11   48 1    
    25   12   13 ar   
    26   12   77 1    
    27   13   14 ar   
    28   13   15 1    
    29   14   78 1    
    30   15   16 1    
    31   15   79 1    
    32   15   80 1    
    33   16   17 1    
    34   17   18 1    
    35   17   81 1    
    36   17   82 1    
    37   18   19 1    
    38   18   22 1    
    39   18   83 1    
    40   19   20 am   BACKBONE|DICT|INTERRES
    41   19   21 2    
    42   20   84 1    
    43   20   85 1    
    44   22   23 am   BACKBONE|DICT|INTERRES
    45   22   86 1    
    46   23   24 2    
    47   23   25 1    
    48   25   26 1    
    49   25   27 1    
    50   25   87 1    
    51   26   88 1    
    52   26   89 1    
    53   26   90 1    
    54   27   28 am   BACKBONE|DICT|INTERRES
    55   27   91 1    
    56   28   29 2    
    57   28   30 1    
    58   30   31 1    
    59   30   32 1    
    60   30   92 1    
    61   31   93 1    
    62   31   94 1    
    63   31   95 1    
    64   32   33 am   BACKBONE|DICT|INTERRES
    65   32   96 1    
    66   33   34 2    
    67   33   35 1    
    68   35   36 1    
    69   35   37 1    
    70   35   97 1    
    71   36   98 1    
    72   36   99 1    
    73   36  100 1    
    74   37   38 am   BACKBONE|DICT|INTERRES
    75   37  101 1    
    76   38   39 2    
    77   38   40 1    
    78   40   41 1    
    79   40   42 1    
    80   40  102 1    
    81   41  103 1    
    82   41  104 1    
    83   41  105 1    
    84   42   43 am   BACKBONE|DICT|INTERRES
    85   42  106 1    
    86   43   44 2    
    87   43   45 1    
    88   45   46 1    
    89   45   49 1    
    90   45  107 1    
    91   46   47 1    
    92   46  108 1    
    93   46  109 1    
    94   47   48 1    
    95   48  110 1    
    96   48  111 1    
    97   49   50 am   BACKBONE|DICT|INTERRES
    98   49  112 1    
    99   50   51 2    
   100   50   52 1    
   101   52   53 1    
   102   52   54 1    
   103   52  113 1    
   104   53  114 1    
   105   53  115 1    
   106   53  116 1    
   107   54   55 am   BACKBONE|DICT|INTERRES
   108   54  117 1    
   109   55   56 2    
   110   55   57 1    
   111   57   58 1    
   112   57   59 1    
   113   57  118 1    
   114   58  119 1    
   115   58  120 1    
   116   58  121 1    
   117   59   60 am   BACKBONE|DICT|INTERRES
   118   59  122 1    
   119   60   61 2    
   120   60   62 1    
   121   62   63 1    
   122   62   64 1    
   123   62  123 1    
   124   63  124 1    
   125   63  125 1    
   126   63  126 1    
   127   64   65 am   BACKBONE|DICT|INTERRES
   128   64  127 1    
   129   65   66 2    
@<TRIPOS>SUBSTRUCTURE
     1 UNK         1 GROUP             0       ****    0 ROOT    
