@<TRIPOS>MOLECULE
3R135
127   129    1
SMALL
USER_CHARGES


@<TRIPOS>ATOM
      1 CA        -79.2467   25.8833  -71.2103 C.3       0 UNK        -0.1998 
      2 C         -80.3181   26.9186  -71.5121 C.2       0 UNK         0.4909 
      3 O         -81.1511   27.2133  -70.6544 O.2       0 UNK        -0.5240 
      4 N         -80.3307   27.4500  -72.7388 N.am      1 UNK        -0.4739 
      5 CA        -81.2946   28.4247  -73.2672 C.3       1 UNK         0.0864 
      6 C6        -80.6706   29.2877  -74.4018 C.3       11 UNK        -0.0881 
      7 S7        -79.7374   28.3325  -75.6578 S.3       11 UNK        -0.2682 
      8 C8        -78.0413   28.9656  -75.4465 C.3       11 UNK         0.0289 
      9 C9        -77.4240   28.5663  -74.1121 C.ar      11 UNK        -0.0687 
     10 C10       -76.8282   27.3099  -73.9561 C.ar      11 UNK        -0.0823 
     11 C11       -76.2196   26.9523  -72.7443 C.ar      11 UNK        -0.0830 
     12 C12       -76.2279   27.8671  -71.6867 C.ar      11 UNK        -0.1021 
     13 C13       -76.8283   29.1201  -71.8250 C.ar      11 UNK        -0.0753 
     14 C14       -77.4175   29.4668  -73.0426 C.ar      11 UNK        -0.0933 
     15 C15       -76.8640   30.0881  -70.6510 C.3       11 UNK         0.0166 
     16 S16       -75.8078   31.5481  -70.9101 S.3       11 UNK        -0.2615 
     17 C17       -74.1232   30.8542  -70.7584 C.3       11 UNK        -0.0865 
     18 CA        -73.1800   31.3836  -71.8768 C.3       10 UNK         0.0862 
     19 C         -71.6689   31.1006  -71.6061 C.2       10 UNK         0.5551 
     20 N         -70.8294   30.9688  -72.6275 N.am      10 UNK        -0.7319 
     21 O         -71.2401   31.0357  -70.4563 O.2       10 UNK        -0.5018 
     22 N         -73.6406   31.0180  -73.2262 N.am      10 UNK        -0.4509 
     23 C         -73.6387   29.7893  -73.7600 C.2       10 UNK         0.4899 
     24 O         -73.2670   28.7746  -73.1689 O.2       10 UNK        -0.4839 
     25 CA        -74.0844   29.6723  -75.2295 C.3       9 UNK         0.0222 
     26 CB        -74.7993   30.9255  -75.7840 C.3       9 UNK        -0.1966 
     27 N         -72.9659   29.2946  -76.0966 N.am      9 UNK        -0.4218 
     28 C         -71.7722   29.8919  -76.2195 C.2       9 UNK         0.5020 
     29 O         -71.4420   30.9103  -75.6060 O.2       9 UNK        -0.5274 
     30 CA        -70.7744   29.2086  -77.1793 C.3       8 UNK         0.0270 
     31 CB        -69.4909   30.0359  -77.3836 C.3       8 UNK        -0.1976 
     32 N         -70.4035   27.8600  -76.7347 N.am      8 UNK        -0.4313 
     33 C         -71.1974   26.7823  -76.7710 C.2       8 UNK         0.5041 
     34 O         -72.3565   26.8059  -77.1954 O.2       8 UNK        -0.5577 
     35 CA        -70.6163   25.4846  -76.1838 C.3       7 UNK         0.0284 
     36 CB        -70.6450   25.5379  -74.6461 C.3       7 UNK        -0.1958 
     37 N         -71.3741   24.3124  -76.6222 N.am      7 UNK        -0.4454 
     38 C         -71.3550   23.7882  -77.8553 C.2       7 UNK         0.5089 
     39 O         -70.5844   24.1517  -78.7450 O.2       7 UNK        -0.5125 
     40 CA        -72.3677   22.6615  -78.1423 C.3       6 UNK         0.0408 
     41 CB        -71.6888   21.2872  -78.0247 C.3       6 UNK        -0.1791 
     42 N         -73.5332   22.7046  -77.2495 N.am      6 UNK        -0.4762 
     43 C         -74.5369   23.5872  -77.3610 C.2       6 UNK         0.5007 
     44 O         -74.6404   24.3934  -78.2894 O.2       6 UNK        -0.5032 
     45 CA        -75.5721   23.5877  -76.2231 C.3       5 UNK         0.0783 
     46 C46       -75.0143   24.3422  -74.9895 C.3       11 UNK        -0.0857 
     47 S47       -76.1298   24.2297  -73.5516 S.3       11 UNK        -0.2512 
     48 C48       -75.5178   25.6104  -72.5284 C.3       11 UNK         0.0225 
     49 N         -76.8103   24.1967  -76.7112 N.am      5 UNK        -0.4615 
     50 C         -77.9992   23.5913  -76.7504 C.2       4 UNK         0.5053 
     51 O         -78.1949   22.4241  -76.4010 O.2       4 UNK        -0.5105 
     52 CA        -79.1587   24.4268  -77.3176 C.3       4 UNK         0.0263 
     53 CB        -79.2110   24.3081  -78.8498 C.3       4 UNK        -0.1981 
     54 N         -80.4466   24.0103  -76.7603 N.am      4 UNK        -0.4224 
     55 C         -80.8332   24.2451  -75.5009 C.2       3 UNK         0.4895 
     56 O         -80.1712   24.8841  -74.6776 O.2       3 UNK        -0.5091 
     57 CA        -82.1886   23.6626  -75.0853 C.3       3 UNK         0.0250 
     58 CB        -82.0298   22.2541  -74.4887 C.3       3 UNK        -0.1996 
     59 N         -82.7512   24.5598  -74.0871 N.am      3 UNK        -0.4254 
     60 C         -84.0351   24.9120  -73.9659 C.2       2 UNK         0.5004 
     61 O         -84.9553   24.3887  -74.5952 O.2       2 UNK        -0.5226 
     62 CA        -84.3414   26.0641  -72.9890 C.3       2 UNK         0.0269 
     63 CB        -84.8377   25.5128  -71.6427 C.3       2 UNK        -0.1926 
     64 N         -83.1834   26.9350  -72.7533 N.am      2 UNK        -0.4687 
     65 C         -82.6288   27.7476  -73.6649 C.2       1 UNK         0.5165 
     66 O         -83.1242   27.9386  -74.7771 O.2       1 UNK        -0.5079 
     67 H67       -78.7328   25.5622  -72.1167 H         1 UNK         0.0900 
     68 H68       -79.6914   25.0026  -70.7481 H         1 UNK         0.0900 
     69 H69       -78.5081   26.2957  -70.5240 H         1 UNK         0.0900 
     70 H70       -79.6499   27.1340  -73.4189 H         1 UNK         0.2959 
     71 H71       -81.5530   29.1111  -72.4576 H         1 UNK         0.1079 
     72 H72       -81.4317   29.8814  -74.9115 H         1 UNK         0.0837 
     73 H73       -80.0081   30.0277  -73.9555 H         1 UNK         0.0837 
     74 H74       -78.0450   30.0510  -75.5581 H         1 UNK         0.0685 
     75 H75       -77.4225   28.5829  -76.2595 H         1 UNK         0.0685 
     76 H76       -76.8355   26.6215  -74.7883 H         1 UNK         0.1434 
     77 H77       -75.7613   27.6022  -70.7477 H         1 UNK         0.1329 
     78 H78       -77.8669   30.4436  -73.1532 H         1 UNK         0.1335 
     79 H79       -76.5708   29.5922  -69.7242 H         1 UNK         0.0680 
     80 H80       -77.8916   30.4231  -70.5033 H         1 UNK         0.0680 
     81 H81       -73.7496   31.1322  -69.7715 H         1 UNK         0.1032 
     82 H82       -74.1555   29.7641  -70.7723 H         1 UNK         0.1032 
     83 H83       -73.2421   32.4720  -71.8477 H         1 UNK         0.0461 
     84 H84       -71.1636   31.0200  -73.5841 H         1 UNK         0.3453 
     85 H85       -69.8533   30.8011  -72.4445 H         1 UNK         0.3453 
     86 H86       -73.9287   31.7886  -73.8101 H         1 UNK         0.2984 
     87 H87       -74.7904   28.8432  -75.2692 H         1 UNK         0.0554 
     88 H88       -75.1947   30.7360  -76.7818 H         1 UNK         0.0847 
     89 H89       -74.1329   31.7859  -75.8553 H         1 UNK         0.0847 
     90 H90       -75.6461   31.2066  -75.1562 H         1 UNK         0.0847 
     91 H91       -73.0599   28.4011  -76.5787 H         1 UNK         0.3141 
     92 H92       -71.2701   29.1253  -78.1491 H         1 UNK         0.0743 
     93 H93       -69.7262   31.0378  -77.7457 H         1 UNK         0.0784 
     94 H94       -68.9297   30.1489  -76.4550 H         1 UNK         0.0784 
     95 H95       -68.8333   29.5744  -78.1205 H         1 UNK         0.0784 
     96 H96       -69.4821   27.7647  -76.3314 H         1 UNK         0.3213 
     97 H97       -69.5831   25.3780  -76.5218 H         1 UNK         0.0855 
     98 H98       -71.6588   25.6722  -74.2652 H         1 UNK         0.0814 
     99 H99       -70.0464   26.3675  -74.2679 H         1 UNK         0.0814 
    100 H100      -70.2394   24.6254  -74.2085 H         1 UNK         0.0814 
    101 H101      -72.0630   23.9579  -75.9785 H         1 UNK         0.3105 
    102 H102      -72.7121   22.7817  -79.1718 H         1 UNK         0.0547 
    103 H103      -71.3206   21.1009  -77.0152 H         1 UNK         0.0837 
    104 H104      -72.3742   20.4814  -78.2878 H         1 UNK         0.0837 
    105 H105      -70.8349   21.2161  -78.7000 H         1 UNK         0.0837 
    106 H106      -73.5308   22.0547  -76.4752 H         1 UNK         0.3020 
    107 H107      -75.7495   22.5459  -75.9453 H         1 UNK         0.1245 
    108 H108      -74.8303   25.3918  -75.2291 H         1 UNK         0.0781 
    109 H109      -74.0529   23.9276  -74.6813 H         1 UNK         0.0781 
    110 H110      -74.4463   25.7422  -72.6867 H         1 UNK         0.0836 
    111 H111      -75.6350   25.3102  -71.4860 H         1 UNK         0.0836 
    112 H112      -76.7053   25.1147  -77.1191 H         1 UNK         0.3022 
    113 H113      -78.9963   25.4744  -77.0525 H         1 UNK         0.0747 
    114 H114      -80.0063   24.9249  -79.2688 H         1 UNK         0.0793 
    115 H115      -78.2747   24.6400  -79.3007 H         1 UNK         0.0793 
    116 H116      -79.3786   23.2787  -79.1695 H         1 UNK         0.0793 
    117 H117      -81.0309   23.4397  -77.3537 H         1 UNK         0.3047 
    118 H118      -82.8418   23.6235  -75.9600 H         1 UNK         0.0822 
    119 H119      -81.6003   21.5666  -75.2185 H         1 UNK         0.0807 
    120 H120      -82.9917   21.8437  -74.1811 H         1 UNK         0.0807 
    121 H121      -81.3728   22.2584  -73.6178 H         1 UNK         0.0807 
    122 H122      -82.0549   25.0852  -73.5734 H         1 UNK         0.2946 
    123 H123      -85.1371   26.6656  -73.4343 H         1 UNK         0.1144 
    124 H124      -85.7133   24.8767  -71.7802 H         1 UNK         0.0793 
    125 H125      -85.1265   26.3177  -70.9665 H         1 UNK         0.0793 
    126 H126      -84.0736   24.9138  -71.1455 H         1 UNK         0.0793 
    127 H127      -82.7125   26.8532  -71.8571 H         1 UNK         0.2896 
@<TRIPOS>BOND
     1    1    2 1    
     2    1   67 1    
     3    1   68 1    
     4    1   69 1    
     5    2    3 2    
     6    2    4 am   BACKBONE|DICT|INTERRES
     7    4    5 1    
     8    4   70 1    
     9    5    6 1    
    10    5   65 1    
    11    5   71 1    
    12    6    7 1    
    13    6   72 1    
    14    6   73 1    
    15    7    8 1    
    16    8    9 1    
    17    8   74 1    
    18    8   75 1    
    19    9   10 ar   
    20    9   14 ar   
    21   10   11 ar   
    22   10   76 1    
    23   11   12 ar   
    24   11   48 1    
    25   12   13 ar   
    26   12   77 1    
    27   13   14 ar   
    28   13   15 1    
    29   14   78 1    
    30   15   16 1    
    31   15   79 1    
    32   15   80 1    
    33   16   17 1    
    34   17   18 1    
    35   17   81 1    
    36   17   82 1    
    37   18   19 1    
    38   18   22 1    
    39   18   83 1    
    40   19   20 am   BACKBONE|DICT|INTERRES
    41   19   21 2    
    42   20   84 1    
    43   20   85 1    
    44   22   23 am   BACKBONE|DICT|INTERRES
    45   22   86 1    
    46   23   24 2    
    47   23   25 1    
    48   25   26 1    
    49   25   27 1    
    50   25   87 1    
    51   26   88 1    
    52   26   89 1    
    53   26   90 1    
    54   27   28 am   BACKBONE|DICT|INTERRES
    55   27   91 1    
    56   28   29 2    
    57   28   30 1    
    58   30   31 1    
    59   30   32 1    
    60   30   92 1    
    61   31   93 1    
    62   31   94 1    
    63   31   95 1    
    64   32   33 am   BACKBONE|DICT|INTERRES
    65   32   96 1    
    66   33   34 2    
    67   33   35 1    
    68   35   36 1    
    69   35   37 1    
    70   35   97 1    
    71   36   98 1    
    72   36   99 1    
    73   36  100 1    
    74   37   38 am   BACKBONE|DICT|INTERRES
    75   37  101 1    
    76   38   39 2    
    77   38   40 1    
    78   40   41 1    
    79   40   42 1    
    80   40  102 1    
    81   41  103 1    
    82   41  104 1    
    83   41  105 1    
    84   42   43 am   BACKBONE|DICT|INTERRES
    85   42  106 1    
    86   43   44 2    
    87   43   45 1    
    88   45   46 1    
    89   45   49 1    
    90   45  107 1    
    91   46   47 1    
    92   46  108 1    
    93   46  109 1    
    94   47   48 1    
    95   48  110 1    
    96   48  111 1    
    97   49   50 am   BACKBONE|DICT|INTERRES
    98   49  112 1    
    99   50   51 2    
   100   50   52 1    
   101   52   53 1    
   102   52   54 1    
   103   52  113 1    
   104   53  114 1    
   105   53  115 1    
   106   53  116 1    
   107   54   55 am   BACKBONE|DICT|INTERRES
   108   54  117 1    
   109   55   56 2    
   110   55   57 1    
   111   57   58 1    
   112   57   59 1    
   113   57  118 1    
   114   58  119 1    
   115   58  120 1    
   116   58  121 1    
   117   59   60 am   BACKBONE|DICT|INTERRES
   118   59  122 1    
   119   60   61 2    
   120   60   62 1    
   121   62   63 1    
   122   62   64 1    
   123   62  123 1    
   124   63  124 1    
   125   63  125 1    
   126   63  126 1    
   127   64   65 am   BACKBONE|DICT|INTERRES
   128   64  127 1    
   129   65   66 2    
@<TRIPOS>SUBSTRUCTURE
     1 UNK         1 GROUP             0       ****    0 ROOT    
