@<TRIPOS>MOLECULE
3R135
127   129    1
SMALL
USER_CHARGES


@<TRIPOS>ATOM
      1 CA        -79.3502   31.2609  -75.5154 C.3       0 UNK        -0.1998 
      2 C         -78.8159   29.9540  -74.9527 C.2       0 UNK         0.4909 
      3 O         -77.6020   29.7847  -74.8496 O.2       0 UNK        -0.5240 
      4 N         -79.7079   29.0200  -74.5963 N.am      1 UNK        -0.4739 
      5 CA        -79.3670   27.7178  -74.0044 C.3       1 UNK         0.0864 
      6 C6        -80.4525   27.2167  -73.0138 C.3       11 UNK        -0.0881 
      7 S7        -80.8514   28.2828  -71.5757 S.3       11 UNK        -0.2682 
      8 C8        -79.3650   29.2982  -71.2310 C.3       11 UNK         0.0289 
      9 C9        -78.0613   28.5300  -71.0056 C.ar      11 UNK        -0.0687 
     10 C10       -78.0378   27.2088  -70.5423 C.ar      11 UNK        -0.0823 
     11 C11       -76.8282   26.5200  -70.4128 C.ar      11 UNK        -0.0830 
     12 C12       -75.6278   27.1767  -70.6967 C.ar      11 UNK        -0.1021 
     13 C13       -75.6293   28.5074  -71.1241 C.ar      11 UNK        -0.0753 
     14 C14       -76.8505   29.1690  -71.2924 C.ar      11 UNK        -0.0933 
     15 C15       -74.3124   29.1981  -71.4572 C.3       11 UNK         0.0166 
     16 S16       -74.1574   30.8592  -70.7193 S.3       11 UNK        -0.2615 
     17 C17       -72.5452   31.3811  -71.4050 C.3       11 UNK        -0.0865 
     18 CA        -72.6565   32.3199  -72.6386 C.3       10 UNK         0.0862 
     19 C         -71.2334   32.7204  -73.1287 C.2       10 UNK         0.5551 
     20 N         -70.7499   32.2035  -74.2526 N.am      10 UNK        -0.7319 
     21 O         -70.5590   33.5095  -72.4719 O.2       10 UNK        -0.5018 
     22 N         -73.5277   31.7453  -73.6751 N.am      10 UNK        -0.4509 
     23 C         -73.9650   32.3542  -74.7840 C.2       10 UNK         0.4899 
     24 O         -73.7272   33.5318  -75.0551 O.2       10 UNK        -0.4839 
     25 CA        -74.8361   31.5131  -75.7421 C.3       9 UNK         0.0222 
     26 CB        -74.5156   31.7932  -77.2254 C.3       9 UNK        -0.1966 
     27 N         -74.8297   30.0673  -75.4608 N.am      9 UNK        -0.4218 
     28 C         -73.7917   29.2171  -75.5462 C.2       9 UNK         0.5020 
     29 O         -72.6633   29.5574  -75.9065 O.2       9 UNK        -0.5274 
     30 CA        -74.0246   27.7607  -75.1016 C.3       8 UNK         0.0270 
     31 CB        -75.4984   27.4037  -74.8455 C.3       8 UNK        -0.1976 
     32 N         -73.5114   26.8361  -76.1049 N.am      8 UNK        -0.4313 
     33 C         -72.3708   26.1449  -76.0336 C.2       8 UNK         0.5041 
     34 O         -71.5528   26.2488  -75.1168 O.2       8 UNK        -0.5577 
     35 CA        -72.1479   25.1206  -77.1644 C.3       7 UNK         0.0284 
     36 CB        -70.7406   24.4955  -77.1312 C.3       7 UNK        -0.1958 
     37 N         -73.1456   24.0467  -77.1095 N.am      7 UNK        -0.4454 
     38 C         -74.4281   24.1508  -77.4837 C.2       7 UNK         0.5089 
     39 O         -74.9107   25.1778  -77.9639 O.2       7 UNK        -0.5125 
     40 CA        -75.3302   22.9179  -77.2903 C.3       6 UNK         0.0408 
     41 CB        -74.5735   21.5748  -77.3961 C.3       6 UNK        -0.1791 
     42 N         -76.1207   22.9823  -76.0539 N.am      6 UNK        -0.4762 
     43 C         -75.6681   23.0171  -74.7887 C.2       6 UNK         0.5007 
     44 O         -74.4720   23.0416  -74.4974 O.2       6 UNK        -0.5032 
     45 CA        -76.7097   22.9784  -73.6483 C.3       5 UNK         0.0783 
     46 C46       -76.5175   24.1416  -72.6398 C.3       11 UNK        -0.0857 
     47 S47       -77.6209   23.9734  -71.1936 S.3       11 UNK        -0.2512 
     48 C48       -76.8207   25.0630  -69.9715 C.3       11 UNK         0.0225 
     49 N         -78.0868   22.9391  -74.1525 N.am      5 UNK        -0.4615 
     50 C         -78.8267   21.8321  -74.2775 C.2       4 UNK         0.5053 
     51 O         -78.3849   20.6934  -74.1243 O.2       4 UNK        -0.5105 
     52 CA        -80.3131   22.0224  -74.6082 C.3       4 UNK         0.0263 
     53 CB        -81.0919   22.4190  -73.3420 C.3       4 UNK        -0.1981 
     54 N         -80.5238   23.0414  -75.6396 N.am      4 UNK        -0.4224 
     55 C         -81.1743   22.8339  -76.7943 C.2       3 UNK         0.4895 
     56 O         -81.6513   21.7477  -77.1265 O.2       3 UNK        -0.5091 
     57 CA        -81.3504   24.0343  -77.7464 C.3       3 UNK         0.0250 
     58 CB        -82.7688   24.6139  -77.6173 C.3       3 UNK        -0.1996 
     59 N         -80.3783   25.1092  -77.5384 N.am      3 UNK        -0.4254 
     60 C         -79.0662   25.0122  -77.7886 C.2       2 UNK         0.5004 
     61 O         -78.5385   24.0190  -78.2877 O.2       2 UNK        -0.5226 
     62 CA        -78.1859   26.2039  -77.3740 C.3       2 UNK         0.0269 
     63 CB        -77.8477   27.0821  -78.5885 C.3       2 UNK        -0.1926 
     64 N         -78.7339   27.0509  -76.3054 N.am      2 UNK        -0.4687 
     65 C         -79.0271   26.6434  -75.0618 C.2       1 UNK         0.5165 
     66 O         -79.0275   25.4552  -74.7375 O.2       1 UNK        -0.5079 
     67 H67       -79.0329   32.0934  -74.8881 H         1 UNK         0.0900 
     68 H68       -78.9600   31.4232  -76.5197 H         1 UNK         0.0900 
     69 H69       -80.4387   31.2686  -75.5664 H         1 UNK         0.0900 
     70 H70       -80.6952   29.2057  -74.7056 H         1 UNK         0.2959 
     71 H71       -78.4341   27.8238  -73.4536 H         1 UNK         0.1079 
     72 H72       -80.1569   26.2534  -72.5927 H         1 UNK         0.0837 
     73 H73       -81.3842   27.0264  -73.5495 H         1 UNK         0.0837 
     74 H74       -79.5638   29.8891  -70.3363 H         1 UNK         0.0685 
     75 H75       -79.2415   30.0177  -72.0402 H         1 UNK         0.0685 
     76 H76       -78.9604   26.6955  -70.3109 H         1 UNK         0.1434 
     77 H77       -74.6904   26.6473  -70.5928 H         1 UNK         0.1329 
     78 H78       -76.8569   30.1876  -71.6563 H         1 UNK         0.1335 
     79 H79       -74.2347   29.2768  -72.5390 H         1 UNK         0.0680 
     80 H80       -73.4682   28.5908  -71.1263 H         1 UNK         0.0680 
     81 H81       -71.9531   30.4967  -71.6488 H         1 UNK         0.1032 
     82 H82       -72.0012   31.8856  -70.6039 H         1 UNK         0.1032 
     83 H83       -73.1376   33.2428  -72.3094 H         1 UNK         0.0461 
     84 H84       -69.8287   32.4679  -74.5638 H         1 UNK         0.3453 
     85 H85       -71.2996   31.5510  -74.7921 H         1 UNK         0.3453 
     86 H86       -73.7941   30.7847  -73.5377 H         1 UNK         0.2984 
     87 H87       -75.8619   31.8398  -75.5663 H         1 UNK         0.0554 
     88 H88       -74.6763   32.8439  -77.4695 H         1 UNK         0.0847 
     89 H89       -75.1552   31.2083  -77.8862 H         1 UNK         0.0847 
     90 H90       -73.4785   31.5608  -77.4685 H         1 UNK         0.0847 
     91 H91       -75.7350   29.7089  -75.1576 H         1 UNK         0.3141 
     92 H92       -73.4808   27.6208  -74.1654 H         1 UNK         0.0743 
     93 H93       -75.8967   27.9334  -73.9803 H         1 UNK         0.0784 
     94 H94       -75.6097   26.3390  -74.6468 H         1 UNK         0.0784 
     95 H95       -76.1206   27.6400  -75.7079 H         1 UNK         0.0784 
     96 H96       -74.1188   26.6364  -76.8944 H         1 UNK         0.3213 
     97 H97       -72.2538   25.6512  -78.1134 H         1 UNK         0.0855 
     98 H98       -70.5700   23.9301  -76.2142 H         1 UNK         0.0814 
     99 H99       -69.9708   25.2664  -77.1871 H         1 UNK         0.0814 
    100 H100      -70.5851   23.8226  -77.9747 H         1 UNK         0.0814 
    101 H101      -72.8635   23.1964  -76.6433 H         1 UNK         0.3105 
    102 H102      -76.0484   22.9412  -78.1109 H         1 UNK         0.0547 
    103 H103      -75.2707   20.7371  -77.4119 H         1 UNK         0.0837 
    104 H104      -73.8860   21.4105  -76.5664 H         1 UNK         0.0837 
    105 H105      -73.9937   21.5239  -78.3188 H         1 UNK         0.0837 
    106 H106      -77.1231   22.9833  -76.1844 H         1 UNK         0.3020 
    107 H107      -76.5037   22.0516  -73.1075 H         1 UNK         0.1245 
    108 H108      -76.7247   25.1027  -73.1102 H         1 UNK         0.0781 
    109 H109      -75.4860   24.1820  -72.2845 H         1 UNK         0.0781 
    110 H110      -75.8041   24.7117  -69.7881 H         1 UNK         0.0836 
    111 H111      -77.3497   24.9760  -69.0215 H         1 UNK         0.0836 
    112 H112      -78.5174   23.8514  -74.2943 H         1 UNK         0.3022 
    113 H113      -80.6893   21.0537  -74.9438 H         1 UNK         0.0747 
    114 H114      -82.1621   22.4802  -73.5399 H         1 UNK         0.0793 
    115 H115      -80.9500   21.6836  -72.5488 H         1 UNK         0.0793 
    116 H116      -80.7675   23.3855  -72.9530 H         1 UNK         0.0793 
    117 H117      -80.1409   23.9625  -75.4547 H         1 UNK         0.3047 
    118 H118      -81.2241   23.6606  -78.7649 H         1 UNK         0.0822 
    119 H119      -82.9403   25.4109  -78.3412 H         1 UNK         0.0807 
    120 H120      -82.9510   25.0182  -76.6207 H         1 UNK         0.0807 
    121 H121      -83.5225   23.8465  -77.7999 H         1 UNK         0.0807 
    122 H122      -80.7210   25.9664  -77.1299 H         1 UNK         0.2946 
    123 H123      -77.2565   25.7762  -76.9942 H         1 UNK         0.1144 
    124 H124      -77.1282   27.8587  -78.3281 H         1 UNK         0.0793 
    125 H125      -78.7355   27.5654  -78.9979 H         1 UNK         0.0793 
    126 H126      -77.4000   26.4866  -79.3858 H         1 UNK         0.0793 
    127 H127      -78.7696   28.0436  -76.4875 H         1 UNK         0.2896 
@<TRIPOS>BOND
     1    1    2 1    
     2    1   67 1    
     3    1   68 1    
     4    1   69 1    
     5    2    3 2    
     6    2    4 am   BACKBONE|DICT|INTERRES
     7    4    5 1    
     8    4   70 1    
     9    5    6 1    
    10    5   65 1    
    11    5   71 1    
    12    6    7 1    
    13    6   72 1    
    14    6   73 1    
    15    7    8 1    
    16    8    9 1    
    17    8   74 1    
    18    8   75 1    
    19    9   10 ar   
    20    9   14 ar   
    21   10   11 ar   
    22   10   76 1    
    23   11   12 ar   
    24   11   48 1    
    25   12   13 ar   
    26   12   77 1    
    27   13   14 ar   
    28   13   15 1    
    29   14   78 1    
    30   15   16 1    
    31   15   79 1    
    32   15   80 1    
    33   16   17 1    
    34   17   18 1    
    35   17   81 1    
    36   17   82 1    
    37   18   19 1    
    38   18   22 1    
    39   18   83 1    
    40   19   20 am   BACKBONE|DICT|INTERRES
    41   19   21 2    
    42   20   84 1    
    43   20   85 1    
    44   22   23 am   BACKBONE|DICT|INTERRES
    45   22   86 1    
    46   23   24 2    
    47   23   25 1    
    48   25   26 1    
    49   25   27 1    
    50   25   87 1    
    51   26   88 1    
    52   26   89 1    
    53   26   90 1    
    54   27   28 am   BACKBONE|DICT|INTERRES
    55   27   91 1    
    56   28   29 2    
    57   28   30 1    
    58   30   31 1    
    59   30   32 1    
    60   30   92 1    
    61   31   93 1    
    62   31   94 1    
    63   31   95 1    
    64   32   33 am   BACKBONE|DICT|INTERRES
    65   32   96 1    
    66   33   34 2    
    67   33   35 1    
    68   35   36 1    
    69   35   37 1    
    70   35   97 1    
    71   36   98 1    
    72   36   99 1    
    73   36  100 1    
    74   37   38 am   BACKBONE|DICT|INTERRES
    75   37  101 1    
    76   38   39 2    
    77   38   40 1    
    78   40   41 1    
    79   40   42 1    
    80   40  102 1    
    81   41  103 1    
    82   41  104 1    
    83   41  105 1    
    84   42   43 am   BACKBONE|DICT|INTERRES
    85   42  106 1    
    86   43   44 2    
    87   43   45 1    
    88   45   46 1    
    89   45   49 1    
    90   45  107 1    
    91   46   47 1    
    92   46  108 1    
    93   46  109 1    
    94   47   48 1    
    95   48  110 1    
    96   48  111 1    
    97   49   50 am   BACKBONE|DICT|INTERRES
    98   49  112 1    
    99   50   51 2    
   100   50   52 1    
   101   52   53 1    
   102   52   54 1    
   103   52  113 1    
   104   53  114 1    
   105   53  115 1    
   106   53  116 1    
   107   54   55 am   BACKBONE|DICT|INTERRES
   108   54  117 1    
   109   55   56 2    
   110   55   57 1    
   111   57   58 1    
   112   57   59 1    
   113   57  118 1    
   114   58  119 1    
   115   58  120 1    
   116   58  121 1    
   117   59   60 am   BACKBONE|DICT|INTERRES
   118   59  122 1    
   119   60   61 2    
   120   60   62 1    
   121   62   63 1    
   122   62   64 1    
   123   62  123 1    
   124   63  124 1    
   125   63  125 1    
   126   63  126 1    
   127   64   65 am   BACKBONE|DICT|INTERRES
   128   64  127 1    
   129   65   66 2    
@<TRIPOS>SUBSTRUCTURE
     1 UNK         1 GROUP             0       ****    0 ROOT    
