@<TRIPOS>MOLECULE
3R135
127   129    1
SMALL
USER_CHARGES


@<TRIPOS>ATOM
      1 CA        -82.6884   24.4153  -72.9779 C.3       0 UNK        -0.1998 
      2 C         -81.7062   25.4571  -73.4900 C.2       0 UNK         0.4909 
      3 O         -80.5429   25.1262  -73.7203 O.2       0 UNK        -0.5240 
      4 N         -82.1733   26.7006  -73.6821 N.am      1 UNK        -0.4739 
      5 CA        -81.4221   27.8651  -74.1731 C.3       1 UNK         0.0864 
      6 C6        -80.4924   28.4720  -73.0822 C.3       11 UNK        -0.0881 
      7 S7        -80.1698   30.2494  -73.3629 S.3       11 UNK        -0.2682 
      8 C8        -78.3998   30.3081  -73.7967 C.3       11 UNK         0.0289 
      9 C9        -77.5100   29.9514  -72.6161 C.ar      11 UNK        -0.0687 
     10 C10       -76.9088   28.6924  -72.5365 C.ar      11 UNK        -0.0823 
     11 C11       -76.0935   28.3550  -71.4488 C.ar      11 UNK        -0.0830 
     12 C12       -75.8745   29.3055  -70.4454 C.ar      11 UNK        -0.1021 
     13 C13       -76.4555   30.5752  -70.5227 C.ar      11 UNK        -0.0753 
     14 C14       -77.2743   30.8906  -71.6096 C.ar      11 UNK        -0.0933 
     15 C15       -76.2207   31.6053  -69.4273 C.3       11 UNK         0.0166 
     16 S16       -74.9094   32.7898  -69.8719 S.3       11 UNK        -0.2615 
     17 C17       -73.3994   31.7917  -69.6224 C.3       11 UNK        -0.0865 
     18 CA        -72.5835   31.5582  -70.9220 C.3       10 UNK         0.0862 
     19 C         -71.2847   30.7602  -70.5994 C.2       10 UNK         0.5551 
     20 N         -71.1394   29.5167  -71.0411 N.am      10 UNK        -0.7319 
     21 O         -70.3951   31.2831  -69.9327 O.2       10 UNK        -0.5018 
     22 N         -73.4159   31.0013  -72.0029 N.am      10 UNK        -0.4509 
     23 C         -73.0534   30.9131  -73.2873 C.2       10 UNK         0.4899 
     24 O         -71.9681   31.2903  -73.7352 O.2       10 UNK        -0.4839 
     25 CA        -74.0871   30.3074  -74.2372 C.3       9 UNK         0.0222 
     26 CB        -74.9781   31.3909  -74.8682 C.3       9 UNK        -0.1966 
     27 N         -73.3889   29.5540  -75.2724 N.am      9 UNK        -0.4218 
     28 C         -73.8658   28.4573  -75.8681 C.2       9 UNK         0.5020 
     29 O         -74.9987   28.0092  -75.6724 O.2       9 UNK        -0.5274 
     30 CA        -72.8946   27.7242  -76.8078 C.3       8 UNK         0.0270 
     31 CB        -71.7914   27.0147  -76.0035 C.3       8 UNK        -0.1976 
     32 N         -73.6166   26.7344  -77.6090 N.am      8 UNK        -0.4313 
     33 C         -74.1948   26.9988  -78.7882 C.2       8 UNK         0.5041 
     34 O         -74.0521   28.0692  -79.3830 O.2       8 UNK        -0.5577 
     35 CA        -75.1174   25.9305  -79.4083 C.3       7 UNK         0.0284 
     36 CB        -74.8122   25.6860  -80.9020 C.3       7 UNK        -0.1958 
     37 N         -75.2015   24.6741  -78.6540 N.am      7 UNK        -0.4454 
     38 C         -74.2811   23.7073  -78.5409 C.2       7 UNK         0.5089 
     39 O         -73.1757   23.7380  -79.0837 O.2       7 UNK        -0.5125 
     40 CA        -74.6734   22.5149  -77.6442 C.3       6 UNK         0.0408 
     41 CB        -73.4917   21.5626  -77.3646 C.3       6 UNK        -0.1791 
     42 N         -75.3138   22.9189  -76.3845 N.am      6 UNK        -0.4762 
     43 C         -74.8068   23.7267  -75.4382 C.2       6 UNK         0.5007 
     44 O         -73.7167   24.2866  -75.5492 O.2       6 UNK        -0.5032 
     45 CA        -75.6368   23.9439  -74.1531 C.3       5 UNK         0.0783 
     46 C46       -75.6628   25.4286  -73.7111 C.3       11 UNK        -0.0857 
     47 S47       -76.3852   25.6070  -72.0411 S.3       11 UNK        -0.2512 
     48 C48       -75.4173   26.9883  -71.3369 C.3       11 UNK         0.0225 
     49 N         -76.9975   23.4181  -74.2892 N.am      5 UNK        -0.4615 
     50 C         -77.4224   22.2241  -73.8634 C.2       4 UNK         0.5053 
     51 O         -76.6920   21.3815  -73.3422 O.2       4 UNK        -0.5105 
     52 CA        -78.9180   21.9177  -74.0507 C.3       4 UNK         0.0263 
     53 CB        -79.6648   22.0656  -72.7151 C.3       4 UNK        -0.1981 
     54 N         -79.5445   22.7826  -75.0576 N.am      4 UNK        -0.4224 
     55 C         -79.4767   22.5559  -76.3776 C.2       3 UNK         0.4895 
     56 O         -78.9007   21.5878  -76.8751 O.2       3 UNK        -0.5091 
     57 CA        -80.1417   23.5882  -77.3034 C.3       3 UNK         0.0250 
     58 CB        -81.6679   23.4034  -77.3142 C.3       3 UNK        -0.1996 
     59 N         -79.8248   24.9780  -76.9696 N.am      3 UNK        -0.4254 
     60 C         -78.6045   25.5284  -76.9618 C.2       2 UNK         0.5004 
     61 O         -77.5768   24.9003  -77.2087 O.2       2 UNK        -0.5226 
     62 CA        -78.4914   27.0185  -76.5915 C.3       2 UNK         0.0269 
     63 CB        -78.6239   27.9232  -77.8314 C.3       2 UNK        -0.1926 
     64 N         -79.3985   27.4354  -75.5137 N.am      2 UNK        -0.4687 
     65 C         -80.7347   27.5482  -75.5201 C.2       1 UNK         0.5165 
     66 O         -81.4355   27.3430  -76.5128 O.2       1 UNK        -0.5079 
     67 H67       -82.7622   23.5899  -73.6854 H         1 UNK         0.0900 
     68 H68       -82.3445   24.0161  -72.0242 H         1 UNK         0.0900 
     69 H69       -83.6860   24.8295  -72.8333 H         1 UNK         0.0900 
     70 H70       -83.1520   26.8785  -73.5027 H         1 UNK         0.2959 
     71 H71       -82.1847   28.6104  -74.4069 H         1 UNK         0.1079 
     72 H72       -79.5726   27.9034  -72.9463 H         1 UNK         0.0837 
     73 H73       -80.9942   28.4133  -72.1150 H         1 UNK         0.0837 
     74 H74       -78.1612   31.3198  -74.1278 H         1 UNK         0.0685 
     75 H75       -78.1942   29.6639  -74.6511 H         1 UNK         0.0685 
     76 H76       -77.0682   27.9803  -73.3320 H         1 UNK         0.1434 
     77 H77       -75.2482   29.0558  -69.5996 H         1 UNK         0.1329 
     78 H78       -77.7327   31.8684  -71.6712 H         1 UNK         0.1335 
     79 H79       -77.1436   32.1596  -69.2494 H         1 UNK         0.0680 
     80 H80       -75.9768   31.1187  -68.4816 H         1 UNK         0.0680 
     81 H81       -73.6577   30.8382  -69.1598 H         1 UNK         0.1032 
     82 H82       -72.7861   32.3159  -68.8865 H         1 UNK         0.1032 
     83 H83       -72.2488   32.5371  -71.2709 H         1 UNK         0.0461 
     84 H84       -70.2938   29.0121  -70.8270 H         1 UNK         0.3453 
     85 H85       -71.8615   29.0838  -71.5926 H         1 UNK         0.3453 
     86 H86       -74.3386   30.6913  -71.7287 H         1 UNK         0.2984 
     87 H87       -74.7049   29.6210  -73.6611 H         1 UNK         0.0554 
     88 H88       -75.7397   30.9501  -75.5115 H         1 UNK         0.0847 
     89 H89       -74.3961   32.0919  -75.4675 H         1 UNK         0.0847 
     90 H90       -75.4958   31.9665  -74.0997 H         1 UNK         0.0847 
     91 H91       -72.4359   29.8521  -75.4405 H         1 UNK         0.3141 
     92 H92       -72.4246   28.4584  -77.4657 H         1 UNK         0.0743 
     93 H93       -71.1400   27.7361  -75.5090 H         1 UNK         0.0784 
     94 H94       -71.1614   26.4006  -76.6474 H         1 UNK         0.0784 
     95 H95       -72.2048   26.3707  -75.2271 H         1 UNK         0.0784 
     96 H96       -73.8134   25.8513  -77.1536 H         1 UNK         0.3213 
     97 H97       -76.1207   26.3526  -79.3572 H         1 UNK         0.0855 
     98 H98       -73.7881   25.3473  -81.0594 H         1 UNK         0.0814 
     99 H99       -74.9379   26.6025  -81.4798 H         1 UNK         0.0814 
    100 H100      -75.4840   24.9416  -81.3291 H         1 UNK         0.0814 
    101 H101      -76.0600   24.5708  -78.1102 H         1 UNK         0.3105 
    102 H102      -75.4249   21.9525  -78.2003 H         1 UNK         0.0547 
    103 H103      -73.8021   20.7116  -76.7586 H         1 UNK         0.0837 
    104 H104      -72.6793   22.0686  -76.8418 H         1 UNK         0.0837 
    105 H105      -73.0816   21.1646  -78.2935 H         1 UNK         0.0837 
    106 H106      -76.2415   22.5489  -76.2266 H         1 UNK         0.3020 
    107 H107      -75.1113   23.3813  -73.3778 H         1 UNK         0.1245 
    108 H108      -76.2416   26.0263  -74.4153 H         1 UNK         0.0781 
    109 H109      -74.6560   25.8493  -73.7085 H         1 UNK         0.0781 
    110 H110      -74.4288   27.0391  -71.7941 H         1 UNK         0.0836 
    111 H111      -75.2488   26.7552  -70.2844 H         1 UNK         0.0836 
    112 H112      -77.6688   24.0337  -74.7238 H         1 UNK         0.3022 
    113 H113      -79.0050   20.8772  -74.3713 H         1 UNK         0.0747 
    114 H114      -80.7268   21.8471  -72.8265 H         1 UNK         0.0793 
    115 H115      -79.2681   21.3753  -71.9695 H         1 UNK         0.0793 
    116 H116      -79.5681   23.0725  -72.3072 H         1 UNK         0.0793 
    117 H117      -79.9956   23.6285  -74.7126 H         1 UNK         0.3047 
    118 H118      -79.7699   23.4061  -78.3139 H         1 UNK         0.0822 
    119 H119      -82.1402   24.0544  -78.0501 H         1 UNK         0.0807 
    120 H120      -82.1093   23.6234  -76.3414 H         1 UNK         0.0807 
    121 H121      -81.9362   22.3776  -77.5711 H         1 UNK         0.0807 
    122 H122      -80.6050   25.5954  -76.7686 H         1 UNK         0.2946 
    123 H123      -77.4827   27.1597  -76.2003 H         1 UNK         0.1144 
    124 H124      -78.5107   28.9744  -77.5665 H         1 UNK         0.0793 
    125 H125      -79.5867   27.8031  -78.3285 H         1 UNK         0.0793 
    126 H126      -77.8531   27.6928  -78.5659 H         1 UNK         0.0793 
    127 H127      -78.9535   27.5531  -74.6160 H         1 UNK         0.2896 
@<TRIPOS>BOND
     1    1    2 1    
     2    1   67 1    
     3    1   68 1    
     4    1   69 1    
     5    2    3 2    
     6    2    4 am   BACKBONE|DICT|INTERRES
     7    4    5 1    
     8    4   70 1    
     9    5    6 1    
    10    5   65 1    
    11    5   71 1    
    12    6    7 1    
    13    6   72 1    
    14    6   73 1    
    15    7    8 1    
    16    8    9 1    
    17    8   74 1    
    18    8   75 1    
    19    9   10 ar   
    20    9   14 ar   
    21   10   11 ar   
    22   10   76 1    
    23   11   12 ar   
    24   11   48 1    
    25   12   13 ar   
    26   12   77 1    
    27   13   14 ar   
    28   13   15 1    
    29   14   78 1    
    30   15   16 1    
    31   15   79 1    
    32   15   80 1    
    33   16   17 1    
    34   17   18 1    
    35   17   81 1    
    36   17   82 1    
    37   18   19 1    
    38   18   22 1    
    39   18   83 1    
    40   19   20 am   BACKBONE|DICT|INTERRES
    41   19   21 2    
    42   20   84 1    
    43   20   85 1    
    44   22   23 am   BACKBONE|DICT|INTERRES
    45   22   86 1    
    46   23   24 2    
    47   23   25 1    
    48   25   26 1    
    49   25   27 1    
    50   25   87 1    
    51   26   88 1    
    52   26   89 1    
    53   26   90 1    
    54   27   28 am   BACKBONE|DICT|INTERRES
    55   27   91 1    
    56   28   29 2    
    57   28   30 1    
    58   30   31 1    
    59   30   32 1    
    60   30   92 1    
    61   31   93 1    
    62   31   94 1    
    63   31   95 1    
    64   32   33 am   BACKBONE|DICT|INTERRES
    65   32   96 1    
    66   33   34 2    
    67   33   35 1    
    68   35   36 1    
    69   35   37 1    
    70   35   97 1    
    71   36   98 1    
    72   36   99 1    
    73   36  100 1    
    74   37   38 am   BACKBONE|DICT|INTERRES
    75   37  101 1    
    76   38   39 2    
    77   38   40 1    
    78   40   41 1    
    79   40   42 1    
    80   40  102 1    
    81   41  103 1    
    82   41  104 1    
    83   41  105 1    
    84   42   43 am   BACKBONE|DICT|INTERRES
    85   42  106 1    
    86   43   44 2    
    87   43   45 1    
    88   45   46 1    
    89   45   49 1    
    90   45  107 1    
    91   46   47 1    
    92   46  108 1    
    93   46  109 1    
    94   47   48 1    
    95   48  110 1    
    96   48  111 1    
    97   49   50 am   BACKBONE|DICT|INTERRES
    98   49  112 1    
    99   50   51 2    
   100   50   52 1    
   101   52   53 1    
   102   52   54 1    
   103   52  113 1    
   104   53  114 1    
   105   53  115 1    
   106   53  116 1    
   107   54   55 am   BACKBONE|DICT|INTERRES
   108   54  117 1    
   109   55   56 2    
   110   55   57 1    
   111   57   58 1    
   112   57   59 1    
   113   57  118 1    
   114   58  119 1    
   115   58  120 1    
   116   58  121 1    
   117   59   60 am   BACKBONE|DICT|INTERRES
   118   59  122 1    
   119   60   61 2    
   120   60   62 1    
   121   62   63 1    
   122   62   64 1    
   123   62  123 1    
   124   63  124 1    
   125   63  125 1    
   126   63  126 1    
   127   64   65 am   BACKBONE|DICT|INTERRES
   128   64  127 1    
   129   65   66 2    
@<TRIPOS>SUBSTRUCTURE
     1 UNK         1 GROUP             0       ****    0 ROOT    
