@<TRIPOS>MOLECULE
3R135
127   129    1
SMALL
USER_CHARGES


@<TRIPOS>ATOM
      1 CA        -80.6467   22.7745  -73.2094 C.3       0 UNK        -0.1998 
      2 C         -80.6451   24.2569  -73.5469 C.2       0 UNK         0.4909 
      3 O         -79.6739   24.7470  -74.1273 O.2       0 UNK        -0.5240 
      4 N         -81.7271   24.9681  -73.1966 N.am      1 UNK        -0.4739 
      5 CA        -81.8791   26.4300  -73.2989 C.3       1 UNK         0.0864 
      6 C6        -80.8542   27.1662  -72.3972 C.3       11 UNK        -0.0881 
      7 S7        -81.5160   28.6798  -71.6164 S.3       11 UNK        -0.2682 
      8 C8        -80.2970   29.9411  -72.1389 C.3       11 UNK         0.0289 
      9 C9        -78.8315   29.5709  -71.8968 C.ar      11 UNK        -0.0687 
     10 C10       -78.4451   28.6808  -70.8872 C.ar      11 UNK        -0.0823 
     11 C11       -77.1139   28.2814  -70.7545 C.ar      11 UNK        -0.0830 
     12 C12       -76.1451   28.8323  -71.5979 C.ar      11 UNK        -0.1021 
     13 C13       -76.5077   29.7527  -72.5857 C.ar      11 UNK        -0.0753 
     14 C14       -77.8503   30.1132  -72.7312 C.ar      11 UNK        -0.0933 
     15 C15       -75.4645   30.3279  -73.5297 C.3       11 UNK         0.0166 
     16 S16       -74.6612   31.8024  -72.8273 S.3       11 UNK        -0.2615 
     17 C17       -73.1846   31.0771  -72.0333 C.3       11 UNK        -0.0865 
     18 CA        -71.9158   31.2367  -72.9101 C.3       10 UNK         0.0862 
     19 C         -70.6603   30.7116  -72.1668 C.2       10 UNK         0.5551 
     20 N         -69.8358   31.6004  -71.6303 N.am      10 UNK        -0.7319 
     21 O         -70.4576   29.5067  -72.0328 O.2       10 UNK        -0.5018 
     22 N         -72.0840   30.5771  -74.2101 N.am      10 UNK        -0.4509 
     23 C         -71.3625   30.8270  -75.3073 C.2       10 UNK         0.4899 
     24 O         -70.4721   31.6767  -75.3673 O.2       10 UNK        -0.4839 
     25 CA        -71.7285   29.9891  -76.5486 C.3       9 UNK         0.0222 
     26 CB        -70.6999   30.1147  -77.6931 C.3       9 UNK        -0.1966 
     27 N         -71.9929   28.5811  -76.2243 N.am      9 UNK        -0.4218 
     28 C         -71.1275   27.6942  -75.7007 C.2       9 UNK         0.5020 
     29 O         -69.9522   27.9523  -75.4382 O.2       9 UNK        -0.5274 
     30 CA        -71.6490   26.2729  -75.4110 C.3       8 UNK         0.0270 
     31 CB        -71.8080   26.0592  -73.8963 C.3       8 UNK        -0.1976 
     32 N         -72.9142   25.9699  -76.0879 N.am      8 UNK        -0.4313 
     33 C         -73.0222   25.7485  -77.4075 C.2       8 UNK         0.5041 
     34 O         -72.0511   25.6971  -78.1637 O.2       8 UNK        -0.5577 
     35 CA        -74.4300   25.5703  -78.0082 C.3       7 UNK         0.0284 
     36 CB        -74.6648   24.0980  -78.3854 C.3       7 UNK        -0.1958 
     37 N         -75.5319   26.0236  -77.1559 N.am      7 UNK        -0.4454 
     38 C         -75.7407   27.2745  -76.7236 C.2       7 UNK         0.5089 
     39 O         -75.0053   28.2267  -76.9898 O.2       7 UNK        -0.5125 
     40 CA        -76.9289   27.4683  -75.7622 C.3       6 UNK         0.0408 
     41 CB        -78.2476   27.6026  -76.5366 C.3       6 UNK        -0.1791 
     42 N         -77.0435   26.3931  -74.7689 N.am      6 UNK        -0.4762 
     43 C         -76.0786   26.0659  -73.8948 C.2       6 UNK         0.5007 
     44 O         -74.9976   26.6508  -73.8281 O.2       6 UNK        -0.5032 
     45 CA        -76.3244   24.8372  -73.0037 C.3       5 UNK         0.0783 
     46 C46       -77.0963   25.1809  -71.7026 C.3       11 UNK        -0.0857 
     47 S47       -75.9417   25.7574  -70.4038 S.3       11 UNK        -0.2512 
     48 C48       -76.7429   27.2411  -69.7058 C.3       11 UNK         0.0225 
     49 N         -76.9438   23.7545  -73.7772 N.am      5 UNK        -0.4615 
     50 C         -76.2305   22.8881  -74.5112 C.2       4 UNK         0.5053 
     51 O         -75.0011   22.9070  -74.5804 O.2       4 UNK        -0.5105 
     52 CA        -76.9878   21.8008  -75.2949 C.3       4 UNK         0.0263 
     53 CB        -77.2605   20.5896  -74.3879 C.3       4 UNK        -0.1981 
     54 N         -78.2384   22.2014  -75.9474 N.am      4 UNK        -0.4224 
     55 C         -78.4155   23.2445  -76.7695 C.2       3 UNK         0.4895 
     56 O         -77.5798   24.1272  -76.9521 O.2       3 UNK        -0.5091 
     57 CA        -79.7397   23.3161  -77.5407 C.3       3 UNK         0.0250 
     58 CB        -80.6166   22.0466  -77.4488 C.3       3 UNK        -0.1996 
     59 N         -80.4898   24.4825  -77.0887 N.am      3 UNK        -0.4254 
     60 C         -81.3636   25.1703  -77.8372 C.2       2 UNK         0.5004 
     61 O         -81.5983   24.9096  -79.0185 O.2       2 UNK        -0.5226 
     62 CA        -82.1228   26.3194  -77.1496 C.3       2 UNK         0.0269 
     63 CB        -83.5388   26.5190  -77.7231 C.3       2 UNK        -0.1926 
     64 N         -82.2162   26.0795  -75.7087 N.am      2 UNK        -0.4687 
     65 C         -81.8837   26.9569  -74.7554 C.2       1 UNK         0.5165 
     66 O         -81.5802   28.1264  -74.9945 O.2       1 UNK        -0.5079 
     67 H67       -80.5749   22.1776  -74.1160 H         1 UNK         0.0900 
     68 H68       -79.7941   22.5355  -72.5745 H         1 UNK         0.0900 
     69 H69       -81.5528   22.4787  -72.6810 H         1 UNK         0.0900 
     70 H70       -82.4995   24.4921  -72.7498 H         1 UNK         0.2959 
     71 H71       -82.8799   26.6369  -72.9164 H         1 UNK         0.1079 
     72 H72       -79.9357   27.3705  -72.9508 H         1 UNK         0.0837 
     73 H73       -80.5491   26.5205  -71.5722 H         1 UNK         0.0837 
     74 H74       -80.4552   30.1330  -73.2015 H         1 UNK         0.0685 
     75 H75       -80.5138   30.8745  -71.6184 H         1 UNK         0.0685 
     76 H76       -79.1883   28.2616  -70.2242 H         1 UNK         0.1434 
     77 H77       -75.1152   28.5185  -71.5029 H         1 UNK         0.1329 
     78 H78       -78.1346   30.8069  -73.5108 H         1 UNK         0.1335 
     79 H79       -75.9328   30.6108  -74.4736 H         1 UNK         0.0680 
     80 H80       -74.7273   29.5647  -73.7817 H         1 UNK         0.0680 
     81 H81       -73.0457   31.5836  -71.0761 H         1 UNK         0.1032 
     82 H82       -73.3615   30.0282  -71.7917 H         1 UNK         0.1032 
     83 H83       -71.7790   32.3037  -73.0997 H         1 UNK         0.0461 
     84 H84       -70.0003   32.5903  -71.7296 H         1 UNK         0.3453 
     85 H85       -69.0240   31.2757  -71.1285 H         1 UNK         0.3453 
     86 H86       -72.7637   29.8343  -74.2448 H         1 UNK         0.2984 
     87 H87       -72.6734   30.3925  -76.9157 H         1 UNK         0.0554 
     88 H88       -70.6110   31.1495  -78.0258 H         1 UNK         0.0847 
     89 H89       -70.9949   29.5212  -78.5584 H         1 UNK         0.0847 
     90 H90       -69.7063   29.7880  -77.3850 H         1 UNK         0.0847 
     91 H91       -72.9401   28.2669  -76.4104 H         1 UNK         0.3141 
     92 H92       -70.8967   25.5682  -75.7718 H         1 UNK         0.0743 
     93 H93       -70.8415   26.1210  -73.3945 H         1 UNK         0.0784 
     94 H94       -72.4486   26.8173  -73.4449 H         1 UNK         0.0784 
     95 H95       -72.2305   25.0799  -73.6699 H         1 UNK         0.0784 
     96 H96       -73.7549   26.0140  -75.5228 H         1 UNK         0.3213 
     97 H97       -74.4616   26.1669  -78.9221 H         1 UNK         0.0855 
     98 H98       -74.6942   23.4582  -77.5023 H         1 UNK         0.0814 
     99 H99       -73.8710   23.7253  -79.0342 H         1 UNK         0.0814 
    100 H100      -75.6051   23.9712  -78.9222 H         1 UNK         0.0814 
    101 H101      -76.2277   25.3185  -76.9114 H         1 UNK         0.3105 
    102 H102      -76.7645   28.3981  -75.2175 H         1 UNK         0.0547 
    103 H103      -79.0752   27.8241  -75.8642 H         1 UNK         0.0837 
    104 H104      -78.1933   28.4162  -77.2609 H         1 UNK         0.0837 
    105 H105      -78.4916   26.6928  -77.0852 H         1 UNK         0.0837 
    106 H106      -77.8940   25.8419  -74.7762 H         1 UNK         0.3020 
    107 H107      -75.3340   24.4866  -72.7016 H         1 UNK         0.1245 
    108 H108      -77.5896   24.2896  -71.3121 H         1 UNK         0.0781 
    109 H109      -77.8927   25.9048  -71.8831 H         1 UNK         0.0781 
    110 H110      -76.0669   27.6970  -68.9813 H         1 UNK         0.0836 
    111 H111      -77.6224   26.9236  -69.1434 H         1 UNK         0.0836 
    112 H112      -77.9556   23.7566  -73.8406 H         1 UNK         0.3022 
    113 H113      -76.3196   21.4737  -76.0943 H         1 UNK         0.0747 
    114 H114      -77.6562   19.7471  -74.9554 H         1 UNK         0.0793 
    115 H115      -76.3437   20.2474  -73.9050 H         1 UNK         0.0793 
    116 H116      -77.9739   20.8292  -73.5985 H         1 UNK         0.0793 
    117 H117      -78.9987   21.5423  -75.8730 H         1 UNK         0.3047 
    118 H118      -79.4615   23.4585  -78.5874 H         1 UNK         0.0822 
    119 H119      -80.0640   21.1567  -77.7537 H         1 UNK         0.0807 
    120 H120      -81.4766   22.1212  -78.1148 H         1 UNK         0.0807 
    121 H121      -81.0015   21.8808  -76.4430 H         1 UNK         0.0807 
    122 H122      -80.2908   24.7920  -76.1429 H         1 UNK         0.2946 
    123 H123      -81.5413   27.2231  -77.3469 H         1 UNK         0.1144 
    124 H124      -84.0529   27.3427  -77.2277 H         1 UNK         0.0793 
    125 H125      -84.1497   25.6231  -77.6063 H         1 UNK         0.0793 
    126 H126      -83.5038   26.7564  -78.7872 H         1 UNK         0.0793 
    127 H127      -82.4619   25.1406  -75.4260 H         1 UNK         0.2896 
@<TRIPOS>BOND
     1    1    2 1    
     2    1   67 1    
     3    1   68 1    
     4    1   69 1    
     5    2    3 2    
     6    2    4 am   BACKBONE|DICT|INTERRES
     7    4    5 1    
     8    4   70 1    
     9    5    6 1    
    10    5   65 1    
    11    5   71 1    
    12    6    7 1    
    13    6   72 1    
    14    6   73 1    
    15    7    8 1    
    16    8    9 1    
    17    8   74 1    
    18    8   75 1    
    19    9   10 ar   
    20    9   14 ar   
    21   10   11 ar   
    22   10   76 1    
    23   11   12 ar   
    24   11   48 1    
    25   12   13 ar   
    26   12   77 1    
    27   13   14 ar   
    28   13   15 1    
    29   14   78 1    
    30   15   16 1    
    31   15   79 1    
    32   15   80 1    
    33   16   17 1    
    34   17   18 1    
    35   17   81 1    
    36   17   82 1    
    37   18   19 1    
    38   18   22 1    
    39   18   83 1    
    40   19   20 am   BACKBONE|DICT|INTERRES
    41   19   21 2    
    42   20   84 1    
    43   20   85 1    
    44   22   23 am   BACKBONE|DICT|INTERRES
    45   22   86 1    
    46   23   24 2    
    47   23   25 1    
    48   25   26 1    
    49   25   27 1    
    50   25   87 1    
    51   26   88 1    
    52   26   89 1    
    53   26   90 1    
    54   27   28 am   BACKBONE|DICT|INTERRES
    55   27   91 1    
    56   28   29 2    
    57   28   30 1    
    58   30   31 1    
    59   30   32 1    
    60   30   92 1    
    61   31   93 1    
    62   31   94 1    
    63   31   95 1    
    64   32   33 am   BACKBONE|DICT|INTERRES
    65   32   96 1    
    66   33   34 2    
    67   33   35 1    
    68   35   36 1    
    69   35   37 1    
    70   35   97 1    
    71   36   98 1    
    72   36   99 1    
    73   36  100 1    
    74   37   38 am   BACKBONE|DICT|INTERRES
    75   37  101 1    
    76   38   39 2    
    77   38   40 1    
    78   40   41 1    
    79   40   42 1    
    80   40  102 1    
    81   41  103 1    
    82   41  104 1    
    83   41  105 1    
    84   42   43 am   BACKBONE|DICT|INTERRES
    85   42  106 1    
    86   43   44 2    
    87   43   45 1    
    88   45   46 1    
    89   45   49 1    
    90   45  107 1    
    91   46   47 1    
    92   46  108 1    
    93   46  109 1    
    94   47   48 1    
    95   48  110 1    
    96   48  111 1    
    97   49   50 am   BACKBONE|DICT|INTERRES
    98   49  112 1    
    99   50   51 2    
   100   50   52 1    
   101   52   53 1    
   102   52   54 1    
   103   52  113 1    
   104   53  114 1    
   105   53  115 1    
   106   53  116 1    
   107   54   55 am   BACKBONE|DICT|INTERRES
   108   54  117 1    
   109   55   56 2    
   110   55   57 1    
   111   57   58 1    
   112   57   59 1    
   113   57  118 1    
   114   58  119 1    
   115   58  120 1    
   116   58  121 1    
   117   59   60 am   BACKBONE|DICT|INTERRES
   118   59  122 1    
   119   60   61 2    
   120   60   62 1    
   121   62   63 1    
   122   62   64 1    
   123   62  123 1    
   124   63  124 1    
   125   63  125 1    
   126   63  126 1    
   127   64   65 am   BACKBONE|DICT|INTERRES
   128   64  127 1    
   129   65   66 2    
@<TRIPOS>SUBSTRUCTURE
     1 UNK         1 GROUP             0       ****    0 ROOT    
