@<TRIPOS>MOLECULE
3R135
127   129    1
SMALL
USER_CHARGES


@<TRIPOS>ATOM
      1 CA        -83.3571   29.5544  -73.0158 C.3       0 UNK        -0.1998 
      2 C         -82.2565   28.6748  -73.5881 C.2       0 UNK         0.4909 
      3 O         -81.8056   27.7492  -72.9127 O.2       0 UNK        -0.5240 
      4 N         -81.8238   28.9608  -74.8249 N.am      1 UNK        -0.4739 
      5 CA        -80.7816   28.2781  -75.6135 C.3       1 UNK         0.0864 
      6 C6        -79.3747   28.2700  -74.9534 C.3       11 UNK        -0.0881 
      7 S7        -78.6880   29.9463  -74.6978 S.3       11 UNK        -0.2682 
      8 C8        -78.9678   30.2673  -72.9218 C.3       11 UNK         0.0289 
      9 C9        -78.0316   29.4672  -72.0274 C.ar      11 UNK        -0.0687 
     10 C10       -78.4262   28.2208  -71.5342 C.ar      11 UNK        -0.0823 
     11 C11       -77.5516   27.4520  -70.7621 C.ar      11 UNK        -0.0830 
     12 C12       -76.3002   27.9700  -70.4184 C.ar      11 UNK        -0.1021 
     13 C13       -75.9037   29.2281  -70.8824 C.ar      11 UNK        -0.0753 
     14 C14       -76.7696   29.9694  -71.6935 C.ar      11 UNK        -0.0933 
     15 C15       -74.5281   29.7679  -70.5279 C.3       11 UNK         0.0166 
     16 S16       -73.2616   29.0758  -71.6319 S.3       11 UNK        -0.2615 
     17 C17       -71.7410   29.8177  -70.9404 C.3       11 UNK        -0.0865 
     18 CA        -71.1618   30.9625  -71.8237 C.3       10 UNK         0.0862 
     19 C         -69.9231   31.6512  -71.1737 C.2       10 UNK         0.5551 
     20 N         -68.9432   32.1092  -71.9432 N.am      10 UNK        -0.7319 
     21 O         -69.8611   31.8033  -69.9559 O.2       10 UNK        -0.5018 
     22 N         -70.9842   30.5694  -73.2335 N.am      10 UNK        -0.4509 
     23 C         -70.2053   29.5866  -73.7014 C.2       10 UNK         0.4899 
     24 O         -69.4508   28.9115  -72.9993 O.2       10 UNK        -0.4839 
     25 CA        -70.3214   29.2982  -75.2116 C.3       9 UNK         0.0222 
     26 CB        -69.4153   28.1391  -75.6686 C.3       9 UNK        -0.1966 
     27 N         -71.7028   28.9984  -75.6011 N.am      9 UNK        -0.4218 
     28 C         -72.6736   29.8993  -75.8088 C.2       9 UNK         0.5020 
     29 O         -72.5057   31.1129  -75.6656 O.2       9 UNK        -0.5274 
     30 CA        -74.0618   29.3584  -76.2113 C.3       8 UNK         0.0270 
     31 CB        -74.8949   30.3870  -77.0042 C.3       8 UNK        -0.1976 
     32 N         -74.0348   28.0694  -76.9165 N.am      8 UNK        -0.4313 
     33 C         -73.4111   27.7707  -78.0695 C.2       8 UNK         0.5041 
     34 O         -72.7065   28.5611  -78.6982 O.2       8 UNK        -0.5577 
     35 CA        -73.5941   26.3407  -78.6187 C.3       7 UNK         0.0284 
     36 CB        -72.4201   25.4475  -78.1849 C.3       7 UNK        -0.1958 
     37 N         -74.8541   25.7170  -78.2043 N.am      7 UNK        -0.4454 
     38 C         -76.0695   26.1356  -78.5824 C.2       7 UNK         0.5089 
     39 O         -76.2541   26.9969  -79.4432 O.2       7 UNK        -0.5125 
     40 CA        -77.2904   25.5215  -77.8703 C.3       6 UNK         0.0408 
     41 CB        -78.0399   24.5620  -78.8069 C.3       6 UNK        -0.1791 
     42 N         -77.0368   24.8421  -76.5909 N.am      6 UNK        -0.4762 
     43 C         -76.4790   25.3802  -75.4948 C.2       6 UNK         0.5007 
     44 O         -75.9122   26.4731  -75.5002 O.2       6 UNK        -0.5032 
     45 CA        -76.5655   24.5939  -74.1684 C.3       5 UNK         0.0783 
     46 C46       -77.2099   25.4786  -73.0735 C.3       11 UNK        -0.0857 
     47 S47       -77.0400   24.7908  -71.3896 S.3       11 UNK        -0.2512 
     48 C48       -77.9306   26.0281  -70.3794 C.3       11 UNK         0.0225 
     49 N         -77.3073   23.3403  -74.3304 N.am      5 UNK        -0.4615 
     50 C         -76.8247   22.1131  -74.1056 C.2       4 UNK         0.5053 
     51 O         -75.6547   21.8849  -73.7967 O.2       4 UNK        -0.5105 
     52 CA        -77.8077   20.9307  -74.2255 C.3       4 UNK         0.0263 
     53 CB        -78.2964   20.5060  -72.8309 C.3       4 UNK        -0.1981 
     54 N         -78.9723   21.2018  -75.0744 N.am      4 UNK        -0.4224 
     55 C         -78.9268   21.3419  -76.4059 C.2       3 UNK         0.4895 
     56 O         -77.8967   21.2246  -77.0699 O.2       3 UNK        -0.5091 
     57 CA        -80.2427   21.6995  -77.1246 C.3       3 UNK         0.0250 
     58 CB        -80.9978   20.4165  -77.5089 C.3       3 UNK        -0.1996 
     59 N         -81.1631   22.6060  -76.4171 N.am      3 UNK        -0.4254 
     60 C         -80.8513   23.7501  -75.7895 C.2       2 UNK         0.5004 
     61 O         -79.7002   24.1132  -75.5505 O.2       2 UNK        -0.5226 
     62 CA        -82.0282   24.6188  -75.3143 C.3       2 UNK         0.0269 
     63 CB        -82.5846   24.0815  -73.9857 C.3       2 UNK        -0.1926 
     64 N         -81.6454   26.0215  -75.1243 N.am      2 UNK        -0.4687 
     65 C         -81.1998   26.8612  -76.0687 C.2       1 UNK         0.5165 
     66 O         -81.1360   26.5694  -77.2641 O.2       1 UNK        -0.5079 
     67 H67       -84.2353   28.9523  -72.7844 H         1 UNK         0.0900 
     68 H68       -83.6563   30.3393  -73.7102 H         1 UNK         0.0900 
     69 H69       -83.0162   30.0278  -72.0954 H         1 UNK         0.0900 
     70 H70       -82.2643   29.7293  -75.3119 H         1 UNK         0.2959 
     71 H71       -80.6943   28.8624  -76.5314 H         1 UNK         0.1079 
     72 H72       -78.6661   27.7387  -75.5920 H         1 UNK         0.0837 
     73 H73       -79.3889   27.7150  -74.0189 H         1 UNK         0.0837 
     74 H74       -78.8200   31.3324  -72.7382 H         1 UNK         0.0685 
     75 H75       -80.0055   30.0645  -72.6622 H         1 UNK         0.0685 
     76 H76       -79.3998   27.8262  -71.7898 H         1 UNK         0.1434 
     77 H77       -75.6173   27.3756  -69.8266 H         1 UNK         0.1329 
     78 H78       -76.4580   30.9326  -72.0740 H         1 UNK         0.1335 
     79 H79       -74.2901   29.5156  -69.4933 H         1 UNK         0.0680 
     80 H80       -74.5136   30.8569  -70.5963 H         1 UNK         0.0680 
     81 H81       -71.0024   29.0243  -70.8160 H         1 UNK         0.1032 
     82 H82       -71.9500   30.1822  -69.9330 H         1 UNK         0.1032 
     83 H83       -71.9184   31.7474  -71.8510 H         1 UNK         0.0461 
     84 H84       -68.1497   32.5633  -71.5189 H         1 UNK         0.3453 
     85 H85       -68.9894   31.9981  -72.9434 H         1 UNK         0.3453 
     86 H86       -71.5692   31.0541  -73.9071 H         1 UNK         0.2984 
     87 H87       -69.9963   30.1980  -75.7380 H         1 UNK         0.0554 
     88 H88       -69.4826   27.9839  -76.7457 H         1 UNK         0.0847 
     89 H89       -69.6775   27.2014  -75.1770 H         1 UNK         0.0847 
     90 H90       -68.3693   28.3465  -75.4385 H         1 UNK         0.0847 
     91 H91       -71.9416   28.0230  -75.7010 H         1 UNK         0.3141 
     92 H92       -74.5866   29.1705  -75.2729 H         1 UNK         0.0743 
     93 H93       -75.0400   31.3030  -76.4303 H         1 UNK         0.0784 
     94 H94       -74.4101   30.6610  -77.9418 H         1 UNK         0.0784 
     95 H95       -75.8850   29.9954  -77.2387 H         1 UNK         0.0784 
     96 H96       -74.6153   27.3497  -76.4868 H         1 UNK         0.3213 
     97 H97       -73.5924   26.4060  -79.7090 H         1 UNK         0.0855 
     98 H98       -71.4672   25.8777  -78.4974 H         1 UNK         0.0814 
     99 H99       -72.4880   24.4566  -78.6342 H         1 UNK         0.0814 
    100 H100      -72.3821   25.3245  -77.1018 H         1 UNK         0.0814 
    101 H101      -74.8050   24.9989  -77.4965 H         1 UNK         0.3105 
    102 H102      -77.9611   26.3544  -77.6499 H         1 UNK         0.0547 
    103 H103      -78.2021   25.0104  -79.7881 H         1 UNK         0.0837 
    104 H104      -77.4923   23.6309  -78.9571 H         1 UNK         0.0837 
    105 H105      -79.0229   24.3199  -78.4048 H         1 UNK         0.0837 
    106 H106      -77.4895   23.9457  -76.4757 H         1 UNK         0.3020 
    107 H107      -75.5326   24.3886  -73.8785 H         1 UNK         0.1245 
    108 H108      -76.7388   26.4633  -73.0683 H         1 UNK         0.0781 
    109 H109      -78.2686   25.6417  -73.2844 H         1 UNK         0.0781 
    110 H110      -77.7084   25.8580  -69.3250 H         1 UNK         0.0836 
    111 H111      -79.0043   25.8717  -70.4955 H         1 UNK         0.0836 
    112 H112      -78.2769   23.4518  -74.6228 H         1 UNK         0.3022 
    113 H113      -77.2582   20.0947  -74.6637 H         1 UNK         0.0747 
    114 H114      -78.9315   19.6215  -72.8835 H         1 UNK         0.0793 
    115 H115      -77.4554   20.2606  -72.1807 H         1 UNK         0.0793 
    116 H116      -78.8627   21.3007  -72.3431 H         1 UNK         0.0793 
    117 H117      -79.8589   21.3328  -74.6095 H         1 UNK         0.3047 
    118 H118      -79.9638   22.2041  -78.0506 H         1 UNK         0.0822 
    119 H119      -81.8500   20.6330  -78.1534 H         1 UNK         0.0807 
    120 H120      -81.3669   19.8869  -76.6295 H         1 UNK         0.0807 
    121 H121      -80.3505   19.7287  -78.0555 H         1 UNK         0.0807 
    122 H122      -82.1434   22.3847  -76.5183 H         1 UNK         0.2946 
    123 H123      -82.8107   24.5861  -76.0754 H         1 UNK         0.1144 
    124 H124      -83.4396   24.6679  -73.6483 H         1 UNK         0.0793 
    125 H125      -81.8314   24.1057  -73.1967 H         1 UNK         0.0793 
    126 H126      -82.9216   23.0489  -74.0849 H         1 UNK         0.0793 
    127 H127      -81.6733   26.3829  -74.1740 H         1 UNK         0.2896 
@<TRIPOS>BOND
     1    1    2 1    
     2    1   67 1    
     3    1   68 1    
     4    1   69 1    
     5    2    3 2    
     6    2    4 am   BACKBONE|DICT|INTERRES
     7    4    5 1    
     8    4   70 1    
     9    5    6 1    
    10    5   65 1    
    11    5   71 1    
    12    6    7 1    
    13    6   72 1    
    14    6   73 1    
    15    7    8 1    
    16    8    9 1    
    17    8   74 1    
    18    8   75 1    
    19    9   10 ar   
    20    9   14 ar   
    21   10   11 ar   
    22   10   76 1    
    23   11   12 ar   
    24   11   48 1    
    25   12   13 ar   
    26   12   77 1    
    27   13   14 ar   
    28   13   15 1    
    29   14   78 1    
    30   15   16 1    
    31   15   79 1    
    32   15   80 1    
    33   16   17 1    
    34   17   18 1    
    35   17   81 1    
    36   17   82 1    
    37   18   19 1    
    38   18   22 1    
    39   18   83 1    
    40   19   20 am   BACKBONE|DICT|INTERRES
    41   19   21 2    
    42   20   84 1    
    43   20   85 1    
    44   22   23 am   BACKBONE|DICT|INTERRES
    45   22   86 1    
    46   23   24 2    
    47   23   25 1    
    48   25   26 1    
    49   25   27 1    
    50   25   87 1    
    51   26   88 1    
    52   26   89 1    
    53   26   90 1    
    54   27   28 am   BACKBONE|DICT|INTERRES
    55   27   91 1    
    56   28   29 2    
    57   28   30 1    
    58   30   31 1    
    59   30   32 1    
    60   30   92 1    
    61   31   93 1    
    62   31   94 1    
    63   31   95 1    
    64   32   33 am   BACKBONE|DICT|INTERRES
    65   32   96 1    
    66   33   34 2    
    67   33   35 1    
    68   35   36 1    
    69   35   37 1    
    70   35   97 1    
    71   36   98 1    
    72   36   99 1    
    73   36  100 1    
    74   37   38 am   BACKBONE|DICT|INTERRES
    75   37  101 1    
    76   38   39 2    
    77   38   40 1    
    78   40   41 1    
    79   40   42 1    
    80   40  102 1    
    81   41  103 1    
    82   41  104 1    
    83   41  105 1    
    84   42   43 am   BACKBONE|DICT|INTERRES
    85   42  106 1    
    86   43   44 2    
    87   43   45 1    
    88   45   46 1    
    89   45   49 1    
    90   45  107 1    
    91   46   47 1    
    92   46  108 1    
    93   46  109 1    
    94   47   48 1    
    95   48  110 1    
    96   48  111 1    
    97   49   50 am   BACKBONE|DICT|INTERRES
    98   49  112 1    
    99   50   51 2    
   100   50   52 1    
   101   52   53 1    
   102   52   54 1    
   103   52  113 1    
   104   53  114 1    
   105   53  115 1    
   106   53  116 1    
   107   54   55 am   BACKBONE|DICT|INTERRES
   108   54  117 1    
   109   55   56 2    
   110   55   57 1    
   111   57   58 1    
   112   57   59 1    
   113   57  118 1    
   114   58  119 1    
   115   58  120 1    
   116   58  121 1    
   117   59   60 am   BACKBONE|DICT|INTERRES
   118   59  122 1    
   119   60   61 2    
   120   60   62 1    
   121   62   63 1    
   122   62   64 1    
   123   62  123 1    
   124   63  124 1    
   125   63  125 1    
   126   63  126 1    
   127   64   65 am   BACKBONE|DICT|INTERRES
   128   64  127 1    
   129   65   66 2    
@<TRIPOS>SUBSTRUCTURE
     1 UNK         1 GROUP             0       ****    0 ROOT    
