@<TRIPOS>MOLECULE
3R135
127   129    1
SMALL
USER_CHARGES


@<TRIPOS>ATOM
      1 CA        -80.7877   24.0638  -67.7086 C.3       0 UNK        -0.1998 
      2 C         -81.2487   24.6489  -69.0351 C.2       0 UNK         0.4909 
      3 O         -82.4136   24.4900  -69.4026 O.2       0 UNK        -0.5240 
      4 N         -80.3472   25.3329  -69.7502 N.am      1 UNK        -0.4739 
      5 CA        -80.5942   25.9180  -71.0718 C.3       1 UNK         0.0864 
      6 C6        -79.4655   26.8893  -71.4850 C.3       11 UNK        -0.0881 
      7 S7        -79.3736   28.3621  -70.4158 S.3       11 UNK        -0.2682 
      8 C8        -80.2617   29.5991  -71.4145 C.3       11 UNK         0.0289 
      9 C9        -79.5125   29.9778  -72.6863 C.ar      11 UNK        -0.0687 
     10 C10       -80.0119   29.6048  -73.9387 C.ar      11 UNK        -0.0823 
     11 C11       -79.3572   29.9908  -75.1126 C.ar      11 UNK        -0.0830 
     12 C12       -78.1983   30.7718  -75.0209 C.ar      11 UNK        -0.1021 
     13 C13       -77.6686   31.1214  -73.7757 C.ar      11 UNK        -0.0753 
     14 C14       -78.3348   30.7275  -72.6116 C.ar      11 UNK        -0.0933 
     15 C15       -76.3835   31.9348  -73.6911 C.3       11 UNK         0.0166 
     16 S16       -74.9527   31.0358  -74.3736 S.3       11 UNK        -0.2615 
     17 C17       -74.8460   29.5944  -73.2570 C.3       11 UNK        -0.0865 
     18 CA        -73.3867   29.2062  -72.9134 C.3       10 UNK         0.0862 
     19 C         -73.3497   28.0525  -71.8746 C.2       10 UNK         0.5551 
     20 N         -73.4312   28.3782  -70.5914 N.am      10 UNK        -0.7319 
     21 O         -73.2803   26.8733  -72.2147 O.2       10 UNK        -0.5018 
     22 N         -72.6095   28.8831  -74.1188 N.am      10 UNK        -0.4509 
     23 C         -71.2741   28.9535  -74.1929 C.2       10 UNK         0.4899 
     24 O         -70.5581   29.3376  -73.2659 O.2       10 UNK        -0.4839 
     25 CA        -70.6380   28.5512  -75.5382 C.3       9 UNK         0.0222 
     26 CB        -69.0988   28.4432  -75.4806 C.3       9 UNK        -0.1966 
     27 N         -71.2357   27.3388  -76.1060 N.am      9 UNK        -0.4218 
     28 C         -71.2355   26.1013  -75.5820 C.2       9 UNK         0.5020 
     29 O         -70.6228   25.7907  -74.5596 O.2       9 UNK        -0.5274 
     30 CA        -72.0637   25.0203  -76.3048 C.3       8 UNK         0.0270 
     31 CB        -73.0674   24.3735  -75.3344 C.3       8 UNK        -0.1976 
     32 N         -72.8049   25.5667  -77.4438 N.am      8 UNK        -0.4313 
     33 C         -72.4243   25.4859  -78.7265 C.2       8 UNK         0.5041 
     34 O         -71.4330   24.8627  -79.1076 O.2       8 UNK        -0.5577 
     35 CA        -73.2752   26.2443  -79.7659 C.3       7 UNK         0.0284 
     36 CB        -74.2784   25.2900  -80.4337 C.3       7 UNK        -0.1958 
     37 N         -74.0006   27.3938  -79.2149 N.am      7 UNK        -0.4454 
     38 C         -73.4317   28.4822  -78.6770 C.2       7 UNK         0.5089 
     39 O         -72.2166   28.6711  -78.6441 O.2       7 UNK        -0.5125 
     40 CA        -74.3677   29.4880  -77.9830 C.3       6 UNK         0.0408 
     41 CB        -74.7595   30.6180  -78.9461 C.3       6 UNK        -0.1791 
     42 N         -75.5826   28.8854  -77.4212 N.am      6 UNK        -0.4762 
     43 C         -75.6247   27.9127  -76.5017 C.2       6 UNK         0.5007 
     44 O         -74.6021   27.3906  -76.0480 O.2       6 UNK        -0.5032 
     45 CA        -77.0203   27.4498  -76.0175 C.3       5 UNK         0.0783 
     46 C46       -78.1334   27.4569  -77.1045 C.3       11 UNK        -0.0857 
     47 S47       -78.6704   29.1034  -77.6926 S.3       11 UNK        -0.2512 
     48 C48       -79.9343   29.5850  -76.4670 C.3       11 UNK         0.0225 
     49 N         -76.9123   26.1132  -75.4327 N.am      5 UNK        -0.4615 
     50 C         -76.7523   25.8294  -74.1371 C.2       4 UNK         0.5053 
     51 O         -76.7256   26.6806  -73.2506 O.2       4 UNK        -0.5105 
     52 CA        -76.6310   24.3336  -73.7819 C.3       4 UNK         0.0263 
     53 CB        -76.4688   24.0803  -72.2718 C.3       4 UNK        -0.1981 
     54 N         -77.7716   23.5624  -74.2865 N.am      4 UNK        -0.4224 
     55 C         -77.8981   23.1290  -75.5504 C.2       3 UNK         0.4895 
     56 O         -77.0505   23.3325  -76.4211 O.2       3 UNK        -0.5091 
     57 CA        -79.1801   22.3657  -75.9284 C.3       3 UNK         0.0250 
     58 CB        -78.9392   20.8490  -75.8624 C.3       3 UNK        -0.1996 
     59 N         -80.3390   22.7059  -75.1009 N.am      3 UNK        -0.4254 
     60 C         -80.9576   23.8947  -75.0941 C.2       2 UNK         0.5004 
     61 O         -80.6319   24.8421  -75.8101 O.2       2 UNK        -0.5226 
     62 CA        -82.1283   24.0737  -74.1095 C.3       2 UNK         0.0269 
     63 CB        -82.7080   22.7472  -73.5642 C.3       2 UNK        -0.1926 
     64 N         -81.7699   24.9714  -73.0047 N.am      2 UNK        -0.4687 
     65 C         -80.7601   24.8137  -72.1350 C.2       1 UNK         0.5165 
     66 O         -79.9652   23.8692  -72.1617 O.2       1 UNK        -0.5079 
     67 H67       -80.9033   22.9803  -67.7166 H         1 UNK         0.0900 
     68 H68       -81.3877   24.4651  -66.8924 H         1 UNK         0.0900 
     69 H69       -79.7416   24.2916  -67.5041 H         1 UNK         0.0900 
     70 H70       -79.4040   25.4281  -69.4030 H         1 UNK         0.2959 
     71 H71       -81.5289   26.4805  -71.0147 H         1 UNK         0.1079 
     72 H72       -78.5013   26.3856  -71.4246 H         1 UNK         0.0837 
     73 H73       -79.5711   27.2001  -72.5255 H         1 UNK         0.0837 
     74 H74       -81.2595   29.2231  -71.6457 H         1 UNK         0.0685 
     75 H75       -80.4082   30.4953  -70.8100 H         1 UNK         0.0685 
     76 H76       -80.9210   29.0221  -73.9995 H         1 UNK         0.1434 
     77 H77       -77.6887   31.0939  -75.9186 H         1 UNK         0.1329 
     78 H78       -77.9426   31.0063  -71.6431 H         1 UNK         0.1335 
     79 H79       -76.5135   32.8636  -74.2481 H         1 UNK         0.0680 
     80 H80       -76.1671   32.2221  -72.6609 H         1 UNK         0.0680 
     81 H81       -75.3614   28.7584  -73.7251 H         1 UNK         0.1032 
     82 H82       -75.4015   29.8114  -72.3428 H         1 UNK         0.1032 
     83 H83       -72.9241   30.0793  -72.4477 H         1 UNK         0.0461 
     84 H84       -73.4221   27.6442  -69.9008 H         1 UNK         0.3453 
     85 H85       -73.4910   29.3407  -70.2981 H         1 UNK         0.3453 
     86 H86       -73.1343   28.4888  -74.8898 H         1 UNK         0.2984 
     87 H87       -70.8792   29.3562  -76.2338 H         1 UNK         0.0554 
     88 H88       -68.6831   28.1750  -76.4518 H         1 UNK         0.0847 
     89 H89       -68.7692   27.6978  -74.7563 H         1 UNK         0.0847 
     90 H90       -68.6522   29.3949  -75.1901 H         1 UNK         0.0847 
     91 H91       -71.7349   27.4835  -76.9758 H         1 UNK         0.3141 
     92 H92       -71.3703   24.2479  -76.6435 H         1 UNK         0.0743 
     93 H93       -73.7097   25.1226  -74.8701 H         1 UNK         0.0784 
     94 H94       -73.7031   23.6467  -75.8407 H         1 UNK         0.0784 
     95 H95       -72.5511   23.8490  -74.5294 H         1 UNK         0.0784 
     96 H96       -73.6130   26.1327  -77.2003 H         1 UNK         0.3213 
     97 H97       -72.5934   26.6192  -80.5324 H         1 UNK         0.0855 
     98 H98       -75.0009   24.8963  -79.7174 H         1 UNK         0.0814 
     99 H99       -73.7660   24.4368  -80.8807 H         1 UNK         0.0814 
    100 H100      -74.8304   25.7870  -81.2317 H         1 UNK         0.0814 
    101 H101      -75.0080   27.3313  -79.1942 H         1 UNK         0.3105 
    102 H102      -73.8109   29.9271  -77.1526 H         1 UNK         0.0547 
    103 H103      -73.8742   31.1002  -79.3631 H         1 UNK         0.0837 
    104 H104      -75.3552   30.2492  -79.7820 H         1 UNK         0.0837 
    105 H105      -75.3362   31.3901  -78.4364 H         1 UNK         0.0837 
    106 H106      -76.4674   29.2581  -77.7454 H         1 UNK         0.3020 
    107 H107      -77.3110   28.1448  -75.2287 H         1 UNK         0.1245 
    108 H108      -79.0191   26.9472  -76.7207 H         1 UNK         0.0781 
    109 H109      -77.8186   26.8721  -77.9707 H         1 UNK         0.0781 
    110 H110      -80.6487   28.7673  -76.3577 H         1 UNK         0.0836 
    111 H111      -80.4958   30.4311  -76.8650 H         1 UNK         0.0836 
    112 H112      -76.8993   25.3338  -76.0813 H         1 UNK         0.3022 
    113 H113      -75.7236   23.9668  -74.2634 H         1 UNK         0.0747 
    114 H114      -76.2905   23.0249  -72.0660 H         1 UNK         0.0793 
    115 H115      -75.6185   24.6356  -71.8725 H         1 UNK         0.0793 
    116 H116      -77.3512   24.3838  -71.7103 H         1 UNK         0.0793 
    117 H117      -78.5418   23.4235  -73.6400 H         1 UNK         0.3047 
    118 H118      -79.4198   22.6288  -76.9611 H         1 UNK         0.0822 
    119 H119      -79.8088   20.2925  -76.2128 H         1 UNK         0.0807 
    120 H120      -78.7143   20.5191  -74.8473 H         1 UNK         0.0807 
    121 H121      -78.0969   20.5601  -76.4929 H         1 UNK         0.0807 
    122 H122      -80.6619   21.9985  -74.4566 H         1 UNK         0.2946 
    123 H123      -82.9201   24.5687  -74.6746 H         1 UNK         0.1144 
    124 H124      -83.0048   22.0826  -74.3769 H         1 UNK         0.0793 
    125 H125      -83.5997   22.9322  -72.9651 H         1 UNK         0.0793 
    126 H126      -82.0007   22.2080  -72.9333 H         1 UNK         0.0793 
    127 H127      -82.3464   25.7974  -72.9223 H         1 UNK         0.2896 
@<TRIPOS>BOND
     1    1    2 1    
     2    1   67 1    
     3    1   68 1    
     4    1   69 1    
     5    2    3 2    
     6    2    4 am   BACKBONE|DICT|INTERRES
     7    4    5 1    
     8    4   70 1    
     9    5    6 1    
    10    5   65 1    
    11    5   71 1    
    12    6    7 1    
    13    6   72 1    
    14    6   73 1    
    15    7    8 1    
    16    8    9 1    
    17    8   74 1    
    18    8   75 1    
    19    9   10 ar   
    20    9   14 ar   
    21   10   11 ar   
    22   10   76 1    
    23   11   12 ar   
    24   11   48 1    
    25   12   13 ar   
    26   12   77 1    
    27   13   14 ar   
    28   13   15 1    
    29   14   78 1    
    30   15   16 1    
    31   15   79 1    
    32   15   80 1    
    33   16   17 1    
    34   17   18 1    
    35   17   81 1    
    36   17   82 1    
    37   18   19 1    
    38   18   22 1    
    39   18   83 1    
    40   19   20 am   BACKBONE|DICT|INTERRES
    41   19   21 2    
    42   20   84 1    
    43   20   85 1    
    44   22   23 am   BACKBONE|DICT|INTERRES
    45   22   86 1    
    46   23   24 2    
    47   23   25 1    
    48   25   26 1    
    49   25   27 1    
    50   25   87 1    
    51   26   88 1    
    52   26   89 1    
    53   26   90 1    
    54   27   28 am   BACKBONE|DICT|INTERRES
    55   27   91 1    
    56   28   29 2    
    57   28   30 1    
    58   30   31 1    
    59   30   32 1    
    60   30   92 1    
    61   31   93 1    
    62   31   94 1    
    63   31   95 1    
    64   32   33 am   BACKBONE|DICT|INTERRES
    65   32   96 1    
    66   33   34 2    
    67   33   35 1    
    68   35   36 1    
    69   35   37 1    
    70   35   97 1    
    71   36   98 1    
    72   36   99 1    
    73   36  100 1    
    74   37   38 am   BACKBONE|DICT|INTERRES
    75   37  101 1    
    76   38   39 2    
    77   38   40 1    
    78   40   41 1    
    79   40   42 1    
    80   40  102 1    
    81   41  103 1    
    82   41  104 1    
    83   41  105 1    
    84   42   43 am   BACKBONE|DICT|INTERRES
    85   42  106 1    
    86   43   44 2    
    87   43   45 1    
    88   45   46 1    
    89   45   49 1    
    90   45  107 1    
    91   46   47 1    
    92   46  108 1    
    93   46  109 1    
    94   47   48 1    
    95   48  110 1    
    96   48  111 1    
    97   49   50 am   BACKBONE|DICT|INTERRES
    98   49  112 1    
    99   50   51 2    
   100   50   52 1    
   101   52   53 1    
   102   52   54 1    
   103   52  113 1    
   104   53  114 1    
   105   53  115 1    
   106   53  116 1    
   107   54   55 am   BACKBONE|DICT|INTERRES
   108   54  117 1    
   109   55   56 2    
   110   55   57 1    
   111   57   58 1    
   112   57   59 1    
   113   57  118 1    
   114   58  119 1    
   115   58  120 1    
   116   58  121 1    
   117   59   60 am   BACKBONE|DICT|INTERRES
   118   59  122 1    
   119   60   61 2    
   120   60   62 1    
   121   62   63 1    
   122   62   64 1    
   123   62  123 1    
   124   63  124 1    
   125   63  125 1    
   126   63  126 1    
   127   64   65 am   BACKBONE|DICT|INTERRES
   128   64  127 1    
   129   65   66 2    
@<TRIPOS>SUBSTRUCTURE
     1 UNK         1 GROUP             0       ****    0 ROOT    
