@<TRIPOS>MOLECULE
3R135
127   129    1
SMALL
USER_CHARGES


@<TRIPOS>ATOM
      1 CA        -79.5357   28.6249  -70.3213 C.3       0 UNK        -0.1998 
      2 C         -80.6638   28.4142  -71.3170 C.2       0 UNK         0.4909 
      3 O         -81.8191   28.2737  -70.9142 O.2       0 UNK        -0.5240 
      4 N         -80.3367   28.3840  -72.6163 N.am      1 UNK        -0.4739 
      5 CA        -81.2921   28.1413  -73.7070 C.3       1 UNK         0.0864 
      6 C6        -80.7007   28.4728  -75.1011 C.3       11 UNK        -0.0881 
      7 S7        -80.2826   30.2376  -75.2942 S.3       11 UNK        -0.2682 
      8 C8        -78.4767   30.1813  -75.5194 C.3       11 UNK         0.0289 
      9 C9        -77.7637   29.8431  -74.2206 C.ar      11 UNK        -0.0687 
     10 C10       -77.2486   28.5629  -74.0055 C.ar      11 UNK        -0.0823 
     11 C11       -76.6048   28.2493  -72.8040 C.ar      11 UNK        -0.0830 
     12 C12       -76.4651   29.2337  -71.8204 C.ar      11 UNK        -0.1021 
     13 C13       -76.9719   30.5197  -72.0293 C.ar      11 UNK        -0.0753 
     14 C14       -77.6191   30.8177  -73.2308 C.ar      11 UNK        -0.0933 
     15 C15       -76.8486   31.5882  -70.9546 C.3       11 UNK         0.0166 
     16 S16       -75.4954   32.7524  -71.3092 S.3       11 UNK        -0.2615 
     17 C17       -74.0285   31.8143  -70.7606 C.3       11 UNK        -0.0865 
     18 CA        -73.0247   31.5285  -71.9086 C.3       10 UNK         0.0862 
     19 C         -71.6805   30.9797  -71.3383 C.2       10 UNK         0.5551 
     20 N         -71.2341   29.7771  -71.6820 N.am      10 UNK        -0.7319 
     21 O         -71.0226   31.6698  -70.5633 O.2       10 UNK        -0.5018 
     22 N         -73.6286   30.7056  -72.9690 N.am      10 UNK        -0.4509 
     23 C         -73.1303   30.5681  -74.2018 C.2       10 UNK         0.4899 
     24 O         -72.1720   31.2079  -74.6407 O.2       10 UNK        -0.4839 
     25 CA        -73.8072   29.5128  -75.0914 C.3       9 UNK         0.0222 
     26 CB        -74.5968   30.1834  -76.2270 C.3       9 UNK        -0.1966 
     27 N         -72.8391   28.5613  -75.6455 N.am      9 UNK        -0.4218 
     28 C         -72.0196   27.7863  -74.9166 C.2       9 UNK         0.5020 
     29 O         -72.0256   27.7567  -73.6833 O.2       9 UNK        -0.5274 
     30 CA        -71.0599   26.8796  -75.7042 C.3       8 UNK         0.0270 
     31 CB        -70.2306   25.9453  -74.8025 C.3       8 UNK        -0.1976 
     32 N         -71.8407   26.0802  -76.6422 N.am      8 UNK        -0.4313 
     33 C         -71.5577   25.8851  -77.9367 C.2       8 UNK         0.5041 
     34 O         -70.5272   26.2858  -78.4796 O.2       8 UNK        -0.5577 
     35 CA        -72.6093   25.1371  -78.7846 C.3       7 UNK         0.0284 
     36 CB        -72.2224   23.6573  -78.9378 C.3       7 UNK        -0.1958 
     37 N         -73.9673   25.2239  -78.2378 N.am      7 UNK        -0.4454 
     38 C         -74.6585   26.3611  -78.0798 C.2       7 UNK         0.5089 
     39 O         -74.2918   27.4472  -78.5288 O.2       7 UNK        -0.5125 
     40 CA        -75.9376   26.3017  -77.2240 C.3       6 UNK         0.0408 
     41 CB        -77.1883   26.4856  -78.0966 C.3       6 UNK        -0.1791 
     42 N         -76.0922   25.1030  -76.3862 N.am      6 UNK        -0.4762 
     43 C         -75.2638   24.7242  -75.3972 C.2       6 UNK         0.5007 
     44 O         -74.1683   25.2478  -75.1981 O.2       6 UNK        -0.5032 
     45 CA        -75.7318   23.5952  -74.4526 C.3       5 UNK         0.0783 
     46 C46       -76.0329   24.1108  -73.0180 C.3       11 UNK        -0.0857 
     47 S47       -77.1974   25.5204  -72.9158 S.3       11 UNK        -0.2512 
     48 C48       -76.0083   26.8666  -72.5905 C.3       11 UNK         0.0225 
     49 N         -76.8535   22.8256  -74.9975 N.am      5 UNK        -0.4615 
     50 C         -76.7234   21.8374  -75.8940 C.2       4 UNK         0.5053 
     51 O         -75.6425   21.4756  -76.3589 O.2       4 UNK        -0.5105 
     52 CA        -78.0148   21.1421  -76.3591 C.3       4 UNK         0.0263 
     53 CB        -78.3312   19.9374  -75.4589 C.3       4 UNK        -0.1981 
     54 N         -79.1711   22.0403  -76.3881 N.am      4 UNK        -0.4224 
     55 C         -79.3110   23.0864  -77.2105 C.2       3 UNK         0.4895 
     56 O         -78.4844   23.3918  -78.0686 O.2       3 UNK        -0.5091 
     57 CA        -80.5509   23.9732  -77.0174 C.3       3 UNK         0.0250 
     58 CB        -81.7989   23.3469  -77.6695 C.3       3 UNK        -0.1996 
     59 N         -80.7944   24.3590  -75.6194 N.am      3 UNK        -0.4254 
     60 C         -81.1820   23.6048  -74.5786 C.2       2 UNK         0.5004 
     61 O         -81.3792   22.3912  -74.6536 O.2       2 UNK        -0.5226 
     62 CA        -81.3340   24.3044  -73.2123 C.3       2 UNK         0.0269 
     63 CB        -80.4586   23.6207  -72.1474 C.3       2 UNK        -0.1926 
     64 N         -81.0133   25.7372  -73.2441 N.am      2 UNK        -0.4687 
     65 C         -81.8328   26.6960  -73.7031 C.2       1 UNK         0.5165 
     66 O         -82.9618   26.4707  -74.1397 O.2       1 UNK        -0.5079 
     67 H67       -79.8573   28.3632  -69.3135 H         1 UNK         0.0900 
     68 H68       -79.2228   29.6682  -70.3183 H         1 UNK         0.0900 
     69 H69       -78.6789   27.9997  -70.5700 H         1 UNK         0.0900 
     70 H70       -79.3793   28.5584  -72.8942 H         1 UNK         0.2959 
     71 H71       -82.1522   28.7946  -73.5419 H         1 UNK         0.1079 
     72 H72       -79.8243   27.8564  -75.3072 H         1 UNK         0.0837 
     73 H73       -81.4225   28.2361  -75.8859 H         1 UNK         0.0837 
     74 H74       -78.1359   31.1553  -75.8735 H         1 UNK         0.0685 
     75 H75       -78.2234   29.4671  -76.3048 H         1 UNK         0.0685 
     76 H76       -77.3461   27.8072  -74.7723 H         1 UNK         0.1434 
     77 H77       -75.9655   28.9996  -70.8900 H         1 UNK         0.1329 
     78 H78       -78.0175   31.8100  -73.3938 H         1 UNK         0.1335 
     79 H79       -76.7088   31.1400  -69.9697 H         1 UNK         0.0680 
     80 H80       -77.7829   32.1488  -70.8987 H         1 UNK         0.0680 
     81 H81       -73.5526   32.4087  -69.9780 H         1 UNK         0.1032 
     82 H82       -74.3307   30.8828  -70.2798 H         1 UNK         0.1032 
     83 H83       -72.7730   32.4898  -72.3610 H         1 UNK         0.0461 
     84 H84       -71.7330   29.1912  -72.3438 H         1 UNK         0.3453 
     85 H85       -70.3621   29.4535  -71.2959 H         1 UNK         0.3453 
     86 H86       -74.4391   30.1647  -72.7032 H         1 UNK         0.2984 
     87 H87       -74.5044   28.9361  -74.4850 H         1 UNK         0.0554 
     88 H88       -75.1560   29.4549  -76.8127 H         1 UNK         0.0847 
     89 H89       -73.9412   30.7293  -76.9065 H         1 UNK         0.0847 
     90 H90       -75.3192   30.8968  -75.8281 H         1 UNK         0.0847 
     91 H91       -72.7751   28.5156  -76.6531 H         1 UNK         0.3141 
     92 H92       -70.3757   27.5384  -76.2430 H         1 UNK         0.0743 
     93 H93       -70.8693   25.2748  -74.2258 H         1 UNK         0.0784 
     94 H94       -69.5462   25.3336  -75.3903 H         1 UNK         0.0784 
     95 H95       -69.6293   26.5169  -74.0944 H         1 UNK         0.0784 
     96 H96       -72.7209   25.7269  -76.2675 H         1 UNK         0.3213 
     97 H97       -72.6179   25.5974  -79.7749 H         1 UNK         0.0855 
     98 H98       -72.2164   23.1397  -77.9775 H         1 UNK         0.0814 
     99 H99       -71.2244   23.5580  -79.3674 H         1 UNK         0.0814 
    100 H100      -72.9115   23.1322  -79.5994 H         1 UNK         0.0814 
    101 H101      -74.3538   24.3825  -77.8343 H         1 UNK         0.3105 
    102 H102      -75.8833   27.1502  -76.5400 H         1 UNK         0.0547 
    103 H103      -77.1355   27.4167  -78.6626 H         1 UNK         0.0837 
    104 H104      -77.2972   25.6749  -78.8176 H         1 UNK         0.0837 
    105 H105      -78.0954   26.5271  -77.4937 H         1 UNK         0.0837 
    106 H106      -76.9400   24.5702  -76.5219 H         1 UNK         0.3020 
    107 H107      -74.8799   22.9160  -74.3652 H         1 UNK         0.1245 
    108 H108      -75.0970   24.3871  -72.5286 H         1 UNK         0.0781 
    109 H109      -76.4358   23.2980  -72.4117 H         1 UNK         0.0781 
    110 H110      -75.1428   26.7700  -73.2465 H         1 UNK         0.0836 
    111 H111      -75.6333   26.7583  -71.5716 H         1 UNK         0.0836 
    112 H112      -77.7731   23.0641  -74.6575 H         1 UNK         0.3022 
    113 H113      -77.8461   20.7782  -77.3749 H         1 UNK         0.0747 
    114 H114      -79.1977   19.3863  -75.8250 H         1 UNK         0.0793 
    115 H115      -77.4930   19.2396  -75.4305 H         1 UNK         0.0793 
    116 H116      -78.5378   20.2429  -74.4322 H         1 UNK         0.0793 
    117 H117      -79.9131   21.8803  -75.7099 H         1 UNK         0.3047 
    118 H118      -80.3478   24.9066  -77.5455 H         1 UNK         0.0822 
    119 H119      -82.6626   24.0065  -77.5844 H         1 UNK         0.0807 
    120 H120      -82.0634   22.3895  -77.2197 H         1 UNK         0.0807 
    121 H121      -81.6318   23.1677  -78.7325 H         1 UNK         0.0807 
    122 H122      -80.6333   25.3341  -75.4161 H         1 UNK         0.2946 
    123 H123      -82.3791   24.1898  -72.9152 H         1 UNK         0.1144 
    124 H124      -80.5597   24.1065  -71.1767 H         1 UNK         0.0793 
    125 H125      -79.4038   23.6306  -72.4206 H         1 UNK         0.0793 
    126 H126      -80.7475   22.5771  -72.0150 H         1 UNK         0.0793 
    127 H127      -80.1031   26.0088  -72.8979 H         1 UNK         0.2896 
@<TRIPOS>BOND
     1    1    2 1    
     2    1   67 1    
     3    1   68 1    
     4    1   69 1    
     5    2    3 2    
     6    2    4 am   BACKBONE|DICT|INTERRES
     7    4    5 1    
     8    4   70 1    
     9    5    6 1    
    10    5   65 1    
    11    5   71 1    
    12    6    7 1    
    13    6   72 1    
    14    6   73 1    
    15    7    8 1    
    16    8    9 1    
    17    8   74 1    
    18    8   75 1    
    19    9   10 ar   
    20    9   14 ar   
    21   10   11 ar   
    22   10   76 1    
    23   11   12 ar   
    24   11   48 1    
    25   12   13 ar   
    26   12   77 1    
    27   13   14 ar   
    28   13   15 1    
    29   14   78 1    
    30   15   16 1    
    31   15   79 1    
    32   15   80 1    
    33   16   17 1    
    34   17   18 1    
    35   17   81 1    
    36   17   82 1    
    37   18   19 1    
    38   18   22 1    
    39   18   83 1    
    40   19   20 am   BACKBONE|DICT|INTERRES
    41   19   21 2    
    42   20   84 1    
    43   20   85 1    
    44   22   23 am   BACKBONE|DICT|INTERRES
    45   22   86 1    
    46   23   24 2    
    47   23   25 1    
    48   25   26 1    
    49   25   27 1    
    50   25   87 1    
    51   26   88 1    
    52   26   89 1    
    53   26   90 1    
    54   27   28 am   BACKBONE|DICT|INTERRES
    55   27   91 1    
    56   28   29 2    
    57   28   30 1    
    58   30   31 1    
    59   30   32 1    
    60   30   92 1    
    61   31   93 1    
    62   31   94 1    
    63   31   95 1    
    64   32   33 am   BACKBONE|DICT|INTERRES
    65   32   96 1    
    66   33   34 2    
    67   33   35 1    
    68   35   36 1    
    69   35   37 1    
    70   35   97 1    
    71   36   98 1    
    72   36   99 1    
    73   36  100 1    
    74   37   38 am   BACKBONE|DICT|INTERRES
    75   37  101 1    
    76   38   39 2    
    77   38   40 1    
    78   40   41 1    
    79   40   42 1    
    80   40  102 1    
    81   41  103 1    
    82   41  104 1    
    83   41  105 1    
    84   42   43 am   BACKBONE|DICT|INTERRES
    85   42  106 1    
    86   43   44 2    
    87   43   45 1    
    88   45   46 1    
    89   45   49 1    
    90   45  107 1    
    91   46   47 1    
    92   46  108 1    
    93   46  109 1    
    94   47   48 1    
    95   48  110 1    
    96   48  111 1    
    97   49   50 am   BACKBONE|DICT|INTERRES
    98   49  112 1    
    99   50   51 2    
   100   50   52 1    
   101   52   53 1    
   102   52   54 1    
   103   52  113 1    
   104   53  114 1    
   105   53  115 1    
   106   53  116 1    
   107   54   55 am   BACKBONE|DICT|INTERRES
   108   54  117 1    
   109   55   56 2    
   110   55   57 1    
   111   57   58 1    
   112   57   59 1    
   113   57  118 1    
   114   58  119 1    
   115   58  120 1    
   116   58  121 1    
   117   59   60 am   BACKBONE|DICT|INTERRES
   118   59  122 1    
   119   60   61 2    
   120   60   62 1    
   121   62   63 1    
   122   62   64 1    
   123   62  123 1    
   124   63  124 1    
   125   63  125 1    
   126   63  126 1    
   127   64   65 am   BACKBONE|DICT|INTERRES
   128   64  127 1    
   129   65   66 2    
@<TRIPOS>SUBSTRUCTURE
     1 UNK         1 GROUP             0       ****    0 ROOT    
