@<TRIPOS>MOLECULE
3R135
127   129    1
SMALL
USER_CHARGES


@<TRIPOS>ATOM
      1 CA        -81.9383   30.2536  -76.7149 C.3       0 UNK        -0.1998 
      2 C         -81.2445   29.3777  -75.6828 C.2       0 UNK         0.4909 
      3 O         -80.0806   29.0256  -75.8667 O.2       0 UNK        -0.5240 
      4 N         -81.9478   29.0341  -74.5983 N.am      1 UNK        -0.4739 
      5 CA        -81.4583   28.1564  -73.5291 C.3       1 UNK         0.0864 
      6 C6        -82.1243   28.4818  -72.1661 C.3       11 UNK        -0.0881 
      7 S7        -81.9199   30.2331  -71.6851 S.3       11 UNK        -0.2682 
      8 C8        -80.5141   30.1624  -70.5261 C.3       11 UNK         0.0289 
      9 C9        -79.2480   29.5989  -71.1611 C.ar      11 UNK        -0.0687 
     10 C10       -78.6212   28.4839  -70.6010 C.ar      11 UNK        -0.0823 
     11 C11       -77.4583   27.9533  -71.1660 C.ar      11 UNK        -0.0830 
     12 C12       -76.9347   28.5473  -72.3239 C.ar      11 UNK        -0.1021 
     13 C13       -77.5410   29.6767  -72.8924 C.ar      11 UNK        -0.0753 
     14 C14       -78.6932   30.1969  -72.2959 C.ar      11 UNK        -0.0933 
     15 C15       -77.0126   30.3605  -74.1567 C.3       11 UNK         0.0166 
     16 S16       -75.2799   29.9961  -74.6070 S.3       11 UNK        -0.2615 
     17 C17       -74.3838   30.7861  -73.2300 C.3       11 UNK        -0.0865 
     18 CA        -72.8526   30.5465  -73.2889 C.3       10 UNK         0.0862 
     19 C         -72.1422   31.3503  -72.1591 C.2       10 UNK         0.5551 
     20 N         -71.5599   30.7114  -71.1514 N.am      10 UNK        -0.7319 
     21 O         -72.1213   32.5779  -72.2015 O.2       10 UNK        -0.5018 
     22 N         -72.5211   29.1101  -73.3414 N.am      10 UNK        -0.4509 
     23 C         -71.3168   28.6118  -73.6525 C.2       10 UNK         0.4899 
     24 O         -70.3452   29.3022  -73.9607 O.2       10 UNK        -0.4839 
     25 CA        -71.1701   27.0853  -73.6283 C.3       9 UNK         0.0222 
     26 CB        -71.9333   26.4230  -72.4677 C.3       9 UNK        -0.1966 
     27 N         -71.6542   26.5528  -74.8978 N.am      9 UNK        -0.4218 
     28 C         -70.8760   26.0553  -75.8676 C.2       9 UNK         0.5020 
     29 O         -69.6571   25.9028  -75.7695 O.2       9 UNK        -0.5274 
     30 CA        -71.5731   25.6657  -77.1816 C.3       8 UNK         0.0270 
     31 CB        -72.1809   24.2578  -77.0748 C.3       8 UNK        -0.1976 
     32 N         -72.6167   26.6107  -77.5791 N.am      8 UNK        -0.4313 
     33 C         -72.4366   27.8951  -77.9100 C.2       8 UNK         0.5041 
     34 O         -71.3304   28.4334  -77.9663 O.2       8 UNK        -0.5577 
     35 CA        -73.6886   28.7376  -78.2289 C.3       7 UNK         0.0284 
     36 CB        -73.9372   28.8033  -79.7486 C.3       7 UNK        -0.1958 
     37 N         -74.9084   28.3479  -77.5036 N.am      7 UNK        -0.4454 
     38 C         -75.6197   27.2165  -77.5944 C.2       7 UNK         0.5089 
     39 O         -75.3372   26.2777  -78.3412 O.2       7 UNK        -0.5125 
     40 CA        -76.8214   27.0945  -76.6465 C.3       6 UNK         0.0408 
     41 CB        -78.1064   26.8207  -77.4452 C.3       6 UNK        -0.1791 
     42 N         -76.6599   26.0387  -75.6463 N.am      6 UNK        -0.4762 
     43 C         -75.6025   25.7927  -74.8563 C.2       6 UNK         0.5007 
     44 O         -74.5502   26.4351  -74.8740 O.2       6 UNK        -0.5032 
     45 CA        -75.7488   24.6034  -73.8876 C.3       5 UNK         0.0783 
     46 C46       -76.5276   24.9940  -72.6076 C.3       11 UNK        -0.0857 
     47 S47       -75.5066   25.8837  -71.3951 S.3       11 UNK        -0.2512 
     48 C48       -76.7938   26.7708  -70.4552 C.3       11 UNK         0.0225 
     49 N         -76.4153   23.4840  -74.5539 N.am      5 UNK        -0.4615 
     50 C         -75.8034   22.4279  -75.1012 C.2       4 UNK         0.5053 
     51 O         -74.5816   22.2808  -75.1171 O.2       4 UNK        -0.5105 
     52 CA        -76.6966   21.3253  -75.7034 C.3       4 UNK         0.0263 
     53 CB        -76.7219   20.0972  -74.7782 C.3       4 UNK        -0.1981 
     54 N         -78.0754   21.7618  -75.9457 N.am      4 UNK        -0.4224 
     55 C         -78.4682   22.4754  -77.0095 C.2       3 UNK         0.4895 
     56 O         -77.7229   22.7862  -77.9383 O.2       3 UNK        -0.5091 
     57 CA        -79.9380   22.9377  -77.0395 C.3       3 UNK         0.0250 
     58 CB        -80.8033   21.9186  -77.7988 C.3       3 UNK        -0.1996 
     59 N         -80.5422   23.2037  -75.7250 N.am      3 UNK        -0.4254 
     60 C         -80.0819   24.0949  -74.8368 C.2       2 UNK         0.5004 
     61 O         -79.0115   24.6903  -74.9612 O.2       2 UNK        -0.5226 
     62 CA        -80.9231   24.3437  -73.5771 C.3       2 UNK         0.0269 
     63 CB        -80.3502   23.5622  -72.3840 C.3       2 UNK        -0.1926 
     64 N         -80.9313   25.7740  -73.2579 N.am      2 UNK        -0.4687 
     65 C         -81.6745   26.6777  -73.9105 C.2       1 UNK         0.5165 
     66 O         -82.5208   26.3727  -74.7566 O.2       1 UNK        -0.5079 
     67 H67       -81.9721   29.7430  -77.6769 H         1 UNK         0.0900 
     68 H68       -81.3903   31.1866  -76.8426 H         1 UNK         0.0900 
     69 H69       -82.9598   30.4969  -76.4231 H         1 UNK         0.0900 
     70 H70       -82.9075   29.3343  -74.5084 H         1 UNK         0.2959 
     71 H71       -80.3811   28.3025  -73.4296 H         1 UNK         0.1079 
     72 H72       -83.1947   28.2701  -72.2050 H         1 UNK         0.0837 
     73 H73       -81.7210   27.8471  -71.3748 H         1 UNK         0.0837 
     74 H74       -80.3070   31.1704  -70.1643 H         1 UNK         0.0685 
     75 H75       -80.8086   29.5777  -69.6532 H         1 UNK         0.0685 
     76 H76       -79.0337   28.0323  -69.7087 H         1 UNK         0.1434 
     77 H77       -76.0449   28.1402  -72.7789 H         1 UNK         0.1329 
     78 H78       -79.1772   31.0619  -72.7289 H         1 UNK         0.1335 
     79 H79       -77.6515   30.0693  -74.9910 H         1 UNK         0.0680 
     80 H80       -77.1159   31.4422  -74.0573 H         1 UNK         0.0680 
     81 H81       -74.7859   30.4203  -72.2837 H         1 UNK         0.1032 
     82 H82       -74.6043   31.8552  -73.2602 H         1 UNK         0.1032 
     83 H83       -72.4961   30.9785  -74.2262 H         1 UNK         0.0461 
     84 H84       -71.1013   31.2423  -70.4278 H         1 UNK         0.3453 
     85 H85       -71.5726   29.7055  -71.1101 H         1 UNK         0.3453 
     86 H86       -73.2774   28.4732  -73.1387 H         1 UNK         0.2984 
     87 H87       -70.1098   26.8629  -73.4921 H         1 UNK         0.0554 
     88 H88       -71.7125   25.3569  -72.4133 H         1 UNK         0.0847 
     89 H89       -73.0107   26.5263  -72.5787 H         1 UNK         0.0847 
     90 H90       -71.6535   26.8603  -71.5084 H         1 UNK         0.0847 
     91 H91       -72.6554   26.6308  -75.0665 H         1 UNK         0.3141 
     92 H92       -70.8173   25.6563  -77.9697 H         1 UNK         0.0743 
     93 H93       -72.9707   24.2163  -76.3234 H         1 UNK         0.0784 
     94 H94       -72.6070   23.9353  -78.0250 H         1 UNK         0.0784 
     95 H95       -71.4239   23.5246  -76.7933 H         1 UNK         0.0784 
     96 H96       -73.5687   26.2580  -77.6270 H         1 UNK         0.3213 
     97 H97       -73.4646   29.7507  -77.8902 H         1 UNK         0.0855 
     98 H98       -73.0627   29.1980  -80.2676 H         1 UNK         0.0814 
     99 H99       -74.7766   29.4568  -79.9857 H         1 UNK         0.0814 
    100 H100      -74.1460   27.8204  -80.1719 H         1 UNK         0.0814 
    101 H101      -75.1893   29.0012  -76.7818 H         1 UNK         0.3105 
    102 H102      -76.9540   28.0322  -76.1072 H         1 UNK         0.0547 
    103 H103      -78.2904   27.6110  -78.1738 H         1 UNK         0.0837 
    104 H104      -78.0494   25.8764  -77.9885 H         1 UNK         0.0837 
    105 H105      -78.9778   26.7748  -76.7921 H         1 UNK         0.0837 
    106 H106      -77.4880   25.4647  -75.4991 H         1 UNK         0.3020 
    107 H107      -74.7411   24.2948  -73.5981 H         1 UNK         0.1245 
    108 H108      -76.8836   24.0950  -72.1018 H         1 UNK         0.0781 
    109 H109      -77.4209   25.5743  -72.8479 H         1 UNK         0.0781 
    110 H110      -76.3391   27.1429  -69.5362 H         1 UNK         0.0836 
    111 H111      -77.5546   26.0505  -70.1497 H         1 UNK         0.0836 
    112 H112      -77.4208   23.5703  -74.6491 H         1 UNK         0.3022 
    113 H113      -76.2485   21.0256  -76.6534 H         1 UNK         0.0747 
    114 H114      -77.2979   19.2818  -75.2163 H         1 UNK         0.0793 
    115 H115      -75.7134   19.7199  -74.6021 H         1 UNK         0.0793 
    116 H116      -77.1559   20.3320  -73.8054 H         1 UNK         0.0793 
    117 H117      -78.7595   21.5385  -75.2373 H         1 UNK         0.3047 
    118 H118      -79.9594   23.8784  -77.5941 H         1 UNK         0.0822 
    119 H119      -81.8197   22.2865  -77.9402 H         1 UNK         0.0807 
    120 H120      -80.8600   20.9649  -77.2726 H         1 UNK         0.0807 
    121 H121      -80.3937   21.7196  -78.7904 H         1 UNK         0.0807 
    122 H122      -81.4177   22.7369  -75.5345 H         1 UNK         0.2946 
    123 H123      -81.9483   24.0108  -73.7561 H         1 UNK         0.1144 
    124 H124      -80.3367   22.4905  -72.5873 H         1 UNK         0.0793 
    125 H125      -80.9523   23.7124  -71.4877 H         1 UNK         0.0793 
    126 H126      -79.3284   23.8635  -72.1535 H         1 UNK         0.0793 
    127 H127      -80.2353   26.0922  -72.5996 H         1 UNK         0.2896 
@<TRIPOS>BOND
     1    1    2 1    
     2    1   67 1    
     3    1   68 1    
     4    1   69 1    
     5    2    3 2    
     6    2    4 am   BACKBONE|DICT|INTERRES
     7    4    5 1    
     8    4   70 1    
     9    5    6 1    
    10    5   65 1    
    11    5   71 1    
    12    6    7 1    
    13    6   72 1    
    14    6   73 1    
    15    7    8 1    
    16    8    9 1    
    17    8   74 1    
    18    8   75 1    
    19    9   10 ar   
    20    9   14 ar   
    21   10   11 ar   
    22   10   76 1    
    23   11   12 ar   
    24   11   48 1    
    25   12   13 ar   
    26   12   77 1    
    27   13   14 ar   
    28   13   15 1    
    29   14   78 1    
    30   15   16 1    
    31   15   79 1    
    32   15   80 1    
    33   16   17 1    
    34   17   18 1    
    35   17   81 1    
    36   17   82 1    
    37   18   19 1    
    38   18   22 1    
    39   18   83 1    
    40   19   20 am   BACKBONE|DICT|INTERRES
    41   19   21 2    
    42   20   84 1    
    43   20   85 1    
    44   22   23 am   BACKBONE|DICT|INTERRES
    45   22   86 1    
    46   23   24 2    
    47   23   25 1    
    48   25   26 1    
    49   25   27 1    
    50   25   87 1    
    51   26   88 1    
    52   26   89 1    
    53   26   90 1    
    54   27   28 am   BACKBONE|DICT|INTERRES
    55   27   91 1    
    56   28   29 2    
    57   28   30 1    
    58   30   31 1    
    59   30   32 1    
    60   30   92 1    
    61   31   93 1    
    62   31   94 1    
    63   31   95 1    
    64   32   33 am   BACKBONE|DICT|INTERRES
    65   32   96 1    
    66   33   34 2    
    67   33   35 1    
    68   35   36 1    
    69   35   37 1    
    70   35   97 1    
    71   36   98 1    
    72   36   99 1    
    73   36  100 1    
    74   37   38 am   BACKBONE|DICT|INTERRES
    75   37  101 1    
    76   38   39 2    
    77   38   40 1    
    78   40   41 1    
    79   40   42 1    
    80   40  102 1    
    81   41  103 1    
    82   41  104 1    
    83   41  105 1    
    84   42   43 am   BACKBONE|DICT|INTERRES
    85   42  106 1    
    86   43   44 2    
    87   43   45 1    
    88   45   46 1    
    89   45   49 1    
    90   45  107 1    
    91   46   47 1    
    92   46  108 1    
    93   46  109 1    
    94   47   48 1    
    95   48  110 1    
    96   48  111 1    
    97   49   50 am   BACKBONE|DICT|INTERRES
    98   49  112 1    
    99   50   51 2    
   100   50   52 1    
   101   52   53 1    
   102   52   54 1    
   103   52  113 1    
   104   53  114 1    
   105   53  115 1    
   106   53  116 1    
   107   54   55 am   BACKBONE|DICT|INTERRES
   108   54  117 1    
   109   55   56 2    
   110   55   57 1    
   111   57   58 1    
   112   57   59 1    
   113   57  118 1    
   114   58  119 1    
   115   58  120 1    
   116   58  121 1    
   117   59   60 am   BACKBONE|DICT|INTERRES
   118   59  122 1    
   119   60   61 2    
   120   60   62 1    
   121   62   63 1    
   122   62   64 1    
   123   62  123 1    
   124   63  124 1    
   125   63  125 1    
   126   63  126 1    
   127   64   65 am   BACKBONE|DICT|INTERRES
   128   64  127 1    
   129   65   66 2    
@<TRIPOS>SUBSTRUCTURE
     1 UNK         1 GROUP             0       ****    0 ROOT    
