@<TRIPOS>MOLECULE
3R135
127   129    1
SMALL
USER_CHARGES


@<TRIPOS>ATOM
      1 CA        -73.7594   24.9183  -70.4121 C.3       0 UNK        -0.1998 
      2 C         -75.2602   25.0003  -70.1794 C.2       0 UNK         0.4909 
      3 O         -75.7878   24.2622  -69.3466 O.2       0 UNK        -0.5240 
      4 N         -75.9504   25.8982  -70.8961 N.am      1 UNK        -0.4739 
      5 CA        -77.4061   26.0666  -70.8293 C.3       1 UNK         0.0864 
      6 C6        -77.8521   27.4163  -71.4453 C.3       11 UNK        -0.0881 
      7 S7        -79.2979   28.1249  -70.5857 S.3       11 UNK        -0.2682 
      8 C8        -80.5828   28.1406  -71.8852 C.3       11 UNK         0.0289 
      9 C9        -80.2397   28.9460  -73.1400 C.ar      11 UNK        -0.0687 
     10 C10       -80.8301   28.5810  -74.3535 C.ar      11 UNK        -0.0823 
     11 C11       -80.5200   29.2626  -75.5334 C.ar      11 UNK        -0.0830 
     12 C12       -79.6225   30.3312  -75.4979 C.ar      11 UNK        -0.1021 
     13 C13       -79.0209   30.7064  -74.2960 C.ar      11 UNK        -0.0753 
     14 C14       -79.3527   30.0308  -73.1173 C.ar      11 UNK        -0.0933 
     15 C15       -77.9733   31.8082  -74.2897 C.3       11 UNK         0.0166 
     16 S16       -76.3615   31.1679  -74.8507 S.3       11 UNK        -0.2615 
     17 C17       -75.9364   30.0354  -73.4832 C.3       11 UNK        -0.0865 
     18 CA        -74.4414   30.1151  -73.0907 C.3       10 UNK         0.0862 
     19 C         -74.1863   29.4414  -71.7085 C.2       10 UNK         0.5551 
     20 N         -73.3423   28.4237  -71.5915 N.am      10 UNK        -0.7319 
     21 O         -74.7677   29.8608  -70.7116 O.2       10 UNK        -0.5018 
     22 N         -73.5711   29.6354  -74.1762 N.am      10 UNK        -0.4509 
     23 C         -72.2771   29.9608  -74.2977 C.2       10 UNK         0.4899 
     24 O         -71.7136   30.7866  -73.5770 O.2       10 UNK        -0.4839 
     25 CA        -71.4747   29.2336  -75.3969 C.3       9 UNK         0.0222 
     26 CB        -69.9520   29.2849  -75.1513 C.3       9 UNK        -0.1966 
     27 N         -71.9019   27.8476  -75.6307 N.am      9 UNK        -0.4218 
     28 C         -71.9884   26.8532  -74.7302 C.2       9 UNK         0.5020 
     29 O         -71.7206   26.9946  -73.5362 O.2       9 UNK        -0.5274 
     30 CA        -72.4791   25.4790  -75.2247 C.3       8 UNK         0.0270 
     31 CB        -73.5238   24.8787  -74.2699 C.3       8 UNK        -0.1976 
     32 N         -73.0583   25.5609  -76.5662 N.am      8 UNK        -0.4313 
     33 C         -72.4666   25.1314  -77.6897 C.2       8 UNK         0.5041 
     34 O         -71.4062   24.5058  -77.7118 O.2       8 UNK        -0.5577 
     35 CA        -73.1479   25.4931  -79.0234 C.3       7 UNK         0.0284 
     36 CB        -73.9478   24.2979  -79.5652 C.3       7 UNK        -0.1958 
     37 N         -74.0128   26.6762  -78.9272 N.am      7 UNK        -0.4454 
     38 C         -73.5577   27.9187  -78.6992 C.2       7 UNK         0.5089 
     39 O         -72.3622   28.1903  -78.5933 O.2       7 UNK        -0.5125 
     40 CA        -74.5892   29.0406  -78.4866 C.3       6 UNK         0.0408 
     41 CB        -74.7639   29.8590  -79.7749 C.3       6 UNK        -0.1791 
     42 N         -75.8996   28.5750  -78.0277 N.am      6 UNK        -0.4762 
     43 C         -76.1434   27.9483  -76.8672 C.2       6 UNK         0.5007 
     44 O         -75.2594   27.6786  -76.0471 O.2       6 UNK        -0.5032 
     45 CA        -77.6066   27.5390  -76.5778 C.3       5 UNK         0.0783 
     46 C46       -78.5945   27.8379  -77.7514 C.3       11 UNK        -0.0857 
     47 S47       -80.3100   27.2856  -77.4393 S.3       11 UNK        -0.2512 
     48 C48       -81.1143   28.8092  -76.8553 C.3       11 UNK         0.0225 
     49 N         -77.6793   26.1526  -76.1095 N.am      5 UNK        -0.4615 
     50 C         -77.3507   25.0568  -76.8072 C.2       4 UNK         0.5053 
     51 O         -76.8177   25.0834  -77.9165 O.2       4 UNK        -0.5105 
     52 CA        -77.7114   23.7021  -76.1722 C.3       4 UNK         0.0263 
     53 CB        -76.5011   23.0996  -75.4458 C.3       4 UNK        -0.1981 
     54 N         -78.8358   23.8234  -75.2373 N.am      4 UNK        -0.4224 
     55 C         -80.1237   23.8714  -75.6156 C.2       3 UNK         0.4895 
     56 O         -80.4925   23.6680  -76.7735 O.2       3 UNK        -0.5091 
     57 CA        -81.1771   24.2458  -74.5481 C.3       3 UNK         0.0250 
     58 CB        -82.5378   23.5569  -74.7877 C.3       3 UNK        -0.1996 
     59 N         -80.7289   24.0645  -73.1610 N.am      3 UNK        -0.4254 
     60 C         -80.3775   22.9169  -72.5623 C.2       2 UNK         0.5004 
     61 O         -80.4676   21.8100  -73.0958 O.2       2 UNK        -0.5226 
     62 CA        -79.8035   23.0337  -71.1332 C.3       2 UNK         0.0269 
     63 CB        -78.8606   21.8588  -70.7950 C.3       2 UNK        -0.1926 
     64 N         -79.1277   24.3081  -70.8254 N.am      2 UNK        -0.4687 
     65 C         -78.1085   24.8675  -71.4972 C.2       1 UNK         0.5165 
     66 O         -77.7229   24.4877  -72.6056 O.2       1 UNK        -0.5079 
     67 H67       -73.2256   25.0604  -69.4729 H         1 UNK         0.0900 
     68 H68       -73.4123   25.6747  -71.1141 H         1 UNK         0.0900 
     69 H69       -73.4952   23.9386  -70.8090 H         1 UNK         0.0900 
     70 H70       -75.4694   26.4590  -71.5837 H         1 UNK         0.2959 
     71 H71       -77.6643   26.0677  -69.7675 H         1 UNK         0.1079 
     72 H72       -78.0277   27.3391  -72.5202 H         1 UNK         0.0837 
     73 H73       -77.0573   28.1546  -71.3333 H         1 UNK         0.0837 
     74 H74       -80.8009   27.1067  -72.1552 H         1 UNK         0.0685 
     75 H75       -81.4998   28.5470  -71.4569 H         1 UNK         0.0685 
     76 H76       -81.5197   27.7490  -74.3887 H         1 UNK         0.1434 
     77 H77       -79.3594   30.8481  -76.4109 H         1 UNK         0.1329 
     78 H78       -78.8934   30.3346  -72.1877 H         1 UNK         0.1335 
     79 H79       -77.8729   32.2482  -73.2962 H         1 UNK         0.0680 
     80 H80       -78.2851   32.6163  -74.9531 H         1 UNK         0.0680 
     81 H81       -76.5570   30.2924  -72.6240 H         1 UNK         0.1032 
     82 H82       -76.2116   29.0175  -73.7630 H         1 UNK         0.1032 
     83 H83       -74.2120   31.1710  -72.9334 H         1 UNK         0.0461 
     84 H84       -73.1727   28.0431  -70.6754 H         1 UNK         0.3453 
     85 H85       -72.8145   28.0728  -72.3856 H         1 UNK         0.3453 
     86 H86       -73.9735   28.9507  -74.8052 H         1 UNK         0.2984 
     87 H87       -71.6779   29.7736  -76.3225 H         1 UNK         0.0554 
     88 H88       -69.5947   30.3143  -75.1040 H         1 UNK         0.0847 
     89 H89       -69.4039   28.7917  -75.9540 H         1 UNK         0.0847 
     90 H90       -69.6793   28.8017  -74.2123 H         1 UNK         0.0847 
     91 H91       -72.1293   27.6357  -76.5954 H         1 UNK         0.3141 
     92 H92       -71.6087   24.8200  -75.2251 H         1 UNK         0.0743 
     93 H93       -74.4151   25.5036  -74.1956 H         1 UNK         0.0784 
     94 H94       -73.8255   23.8862  -74.6012 H         1 UNK         0.0784 
     95 H95       -73.1139   24.7613  -73.2677 H         1 UNK         0.0784 
     96 H96       -73.9240   26.0852  -76.6395 H         1 UNK         0.3213 
     97 H97       -72.3566   25.7209  -79.7412 H         1 UNK         0.0855 
     98 H98       -73.2887   23.4518  -79.7640 H         1 UNK         0.0814 
     99 H99       -74.4512   24.5424  -80.5006 H         1 UNK         0.0814 
    100 H100      -74.7000   23.9563  -78.8547 H         1 UNK         0.0814 
    101 H101      -75.0118   26.5188  -78.9634 H         1 UNK         0.3105 
    102 H102      -74.1910   29.7030  -77.7148 H         1 UNK         0.0547 
    103 H103      -73.8053   30.2450  -80.1249 H         1 UNK         0.0837 
    104 H104      -75.1869   29.2591  -80.5817 H         1 UNK         0.0837 
    105 H105      -75.4158   30.7180  -79.6153 H         1 UNK         0.0837 
    106 H106      -76.6747   28.7490  -78.6508 H         1 UNK         0.3020 
    107 H107      -77.9038   28.1521  -75.7270 H         1 UNK         0.1245 
    108 H108      -78.2679   27.3331  -78.6625 H         1 UNK         0.0781 
    109 H109      -78.6120   28.9045  -77.9813 H         1 UNK         0.0781 
    110 H110      -82.1822   28.6235  -76.7311 H         1 UNK         0.0836 
    111 H111      -81.0250   29.5868  -77.6156 H         1 UNK         0.0836 
    112 H112      -78.0770   26.0216  -75.1925 H         1 UNK         0.3022 
    113 H113      -77.9900   23.0233  -76.9811 H         1 UNK         0.0747 
    114 H114      -75.6488   23.0030  -76.1200 H         1 UNK         0.0793 
    115 H115      -76.1899   23.7201  -74.6062 H         1 UNK         0.0793 
    116 H116      -76.7264   22.1056  -75.0595 H         1 UNK         0.0793 
    117 H117      -78.5957   23.9749  -74.2606 H         1 UNK         0.3047 
    118 H118      -81.3354   25.3180  -74.6692 H         1 UNK         0.0822 
    119 H119      -82.4517   22.4702  -74.7666 H         1 UNK         0.0807 
    120 H120      -82.9491   23.8294  -75.7605 H         1 UNK         0.0807 
    121 H121      -83.2701   23.8510  -74.0360 H         1 UNK         0.0807 
    122 H122      -80.6059   24.9111  -72.6253 H         1 UNK         0.2946 
    123 H123      -80.6638   22.9696  -70.4647 H         1 UNK         0.1144 
    124 H124      -79.3756   20.9007  -70.8758 H         1 UNK         0.0793 
    125 H125      -78.0027   21.8265  -71.4680 H         1 UNK         0.0793 
    126 H126      -78.4819   21.9339  -69.7755 H         1 UNK         0.0793 
    127 H127      -79.4012   24.7334  -69.9495 H         1 UNK         0.2896 
@<TRIPOS>BOND
     1    1    2 1    
     2    1   67 1    
     3    1   68 1    
     4    1   69 1    
     5    2    3 2    
     6    2    4 am   BACKBONE|DICT|INTERRES
     7    4    5 1    
     8    4   70 1    
     9    5    6 1    
    10    5   65 1    
    11    5   71 1    
    12    6    7 1    
    13    6   72 1    
    14    6   73 1    
    15    7    8 1    
    16    8    9 1    
    17    8   74 1    
    18    8   75 1    
    19    9   10 ar   
    20    9   14 ar   
    21   10   11 ar   
    22   10   76 1    
    23   11   12 ar   
    24   11   48 1    
    25   12   13 ar   
    26   12   77 1    
    27   13   14 ar   
    28   13   15 1    
    29   14   78 1    
    30   15   16 1    
    31   15   79 1    
    32   15   80 1    
    33   16   17 1    
    34   17   18 1    
    35   17   81 1    
    36   17   82 1    
    37   18   19 1    
    38   18   22 1    
    39   18   83 1    
    40   19   20 am   BACKBONE|DICT|INTERRES
    41   19   21 2    
    42   20   84 1    
    43   20   85 1    
    44   22   23 am   BACKBONE|DICT|INTERRES
    45   22   86 1    
    46   23   24 2    
    47   23   25 1    
    48   25   26 1    
    49   25   27 1    
    50   25   87 1    
    51   26   88 1    
    52   26   89 1    
    53   26   90 1    
    54   27   28 am   BACKBONE|DICT|INTERRES
    55   27   91 1    
    56   28   29 2    
    57   28   30 1    
    58   30   31 1    
    59   30   32 1    
    60   30   92 1    
    61   31   93 1    
    62   31   94 1    
    63   31   95 1    
    64   32   33 am   BACKBONE|DICT|INTERRES
    65   32   96 1    
    66   33   34 2    
    67   33   35 1    
    68   35   36 1    
    69   35   37 1    
    70   35   97 1    
    71   36   98 1    
    72   36   99 1    
    73   36  100 1    
    74   37   38 am   BACKBONE|DICT|INTERRES
    75   37  101 1    
    76   38   39 2    
    77   38   40 1    
    78   40   41 1    
    79   40   42 1    
    80   40  102 1    
    81   41  103 1    
    82   41  104 1    
    83   41  105 1    
    84   42   43 am   BACKBONE|DICT|INTERRES
    85   42  106 1    
    86   43   44 2    
    87   43   45 1    
    88   45   46 1    
    89   45   49 1    
    90   45  107 1    
    91   46   47 1    
    92   46  108 1    
    93   46  109 1    
    94   47   48 1    
    95   48  110 1    
    96   48  111 1    
    97   49   50 am   BACKBONE|DICT|INTERRES
    98   49  112 1    
    99   50   51 2    
   100   50   52 1    
   101   52   53 1    
   102   52   54 1    
   103   52  113 1    
   104   53  114 1    
   105   53  115 1    
   106   53  116 1    
   107   54   55 am   BACKBONE|DICT|INTERRES
   108   54  117 1    
   109   55   56 2    
   110   55   57 1    
   111   57   58 1    
   112   57   59 1    
   113   57  118 1    
   114   58  119 1    
   115   58  120 1    
   116   58  121 1    
   117   59   60 am   BACKBONE|DICT|INTERRES
   118   59  122 1    
   119   60   61 2    
   120   60   62 1    
   121   62   63 1    
   122   62   64 1    
   123   62  123 1    
   124   63  124 1    
   125   63  125 1    
   126   63  126 1    
   127   64   65 am   BACKBONE|DICT|INTERRES
   128   64  127 1    
   129   65   66 2    
@<TRIPOS>SUBSTRUCTURE
     1 UNK         1 GROUP             0       ****    0 ROOT    
