@<TRIPOS>MOLECULE
3R135
127   129    1
SMALL
USER_CHARGES


@<TRIPOS>ATOM
      1 CA        -86.8272   28.4734  -71.7950 C.3       0 UNK        -0.1998 
      2 C         -85.8652   28.5076  -72.9731 C.2       0 UNK         0.4909 
      3 O         -86.1495   29.1611  -73.9777 O.2       0 UNK        -0.5240 
      4 N         -84.7341   27.8057  -72.8601 N.am      1 UNK        -0.4739 
      5 CA        -83.6987   27.6823  -73.8870 C.3       1 UNK         0.0864 
      6 C6        -82.8381   28.9690  -74.0375 C.3       11 UNK        -0.0881 
      7 S7        -81.7982   29.3686  -72.5880 S.3       11 UNK        -0.2682 
      8 C8        -80.1682   29.4314  -73.3914 C.3       11 UNK         0.0289 
      9 C9        -79.0186   29.4168  -72.3982 C.ar      11 UNK        -0.0687 
     10 C10       -78.8278   28.3051  -71.5744 C.ar      11 UNK        -0.0823 
     11 C11       -77.6730   28.1892  -70.7978 C.ar      11 UNK        -0.0830 
     12 C12       -76.7476   29.2375  -70.7764 C.ar      11 UNK        -0.1021 
     13 C13       -76.9344   30.3605  -71.5877 C.ar      11 UNK        -0.0753 
     14 C14       -78.0758   30.4490  -72.3908 C.ar      11 UNK        -0.0933 
     15 C15       -75.8680   31.4427  -71.6584 C.3       11 UNK         0.0166 
     16 S16       -74.6602   31.0897  -72.9795 S.3       11 UNK        -0.2615 
     17 C17       -73.6557   29.7651  -72.2217 C.3       11 UNK        -0.0865 
     18 CA        -72.2039   29.7339  -72.7686 C.3       10 UNK         0.0862 
     19 C         -71.2634   28.8683  -71.8753 C.2       10 UNK         0.5551 
     20 N         -70.4373   27.9813  -72.4175 N.am      10 UNK        -0.7319 
     21 O         -71.2708   29.0143  -70.6554 O.2       10 UNK        -0.5018 
     22 N         -72.1737   29.3647  -74.1939 N.am      10 UNK        -0.4509 
     23 C         -71.2780   29.8157  -75.0798 C.2       10 UNK         0.4899 
     24 O         -70.4281   30.6701  -74.8216 O.2       10 UNK        -0.4839 
     25 CA        -71.3310   29.1762  -76.4820 C.3       9 UNK         0.0222 
     26 CB        -70.1460   29.5894  -77.3799 C.3       9 UNK        -0.1966 
     27 N         -71.4546   27.7135  -76.4370 N.am      9 UNK        -0.4218 
     28 C         -70.6365   26.8413  -75.8255 C.2       9 UNK         0.5020 
     29 O         -69.6249   27.1771  -75.2083 O.2       9 UNK        -0.5274 
     30 CA        -71.0096   25.3450  -75.8588 C.3       8 UNK         0.0270 
     31 CB        -71.3282   24.8445  -74.4395 C.3       8 UNK        -0.1976 
     32 N         -72.1386   25.0304  -76.7380 N.am      8 UNK        -0.4313 
     33 C         -72.0843   24.9984  -78.0764 C.2       8 UNK         0.5041 
     34 O         -71.0481   25.1512  -78.7241 O.2       8 UNK        -0.5577 
     35 CA        -73.4195   24.8119  -78.8182 C.3       7 UNK         0.0284 
     36 CB        -73.7697   23.3205  -78.9411 C.3       7 UNK        -0.1958 
     37 N         -74.5305   25.5305  -78.1842 N.am      7 UNK        -0.4454 
     38 C         -74.6012   26.8630  -78.0458 C.2       7 UNK         0.5089 
     39 O         -73.7537   27.6420  -78.4802 O.2       7 UNK        -0.5125 
     40 CA        -75.7782   27.4185  -77.2280 C.3       6 UNK         0.0408 
     41 CB        -77.0697   27.4494  -78.0595 C.3       6 UNK        -0.1791 
     42 N         -75.9959   26.6623  -75.9945 N.am      6 UNK        -0.4762 
     43 C         -75.1329   26.6192  -74.9668 C.2       6 UNK         0.5007 
     44 O         -74.0830   27.2619  -74.9210 O.2       6 UNK        -0.5032 
     45 CA        -75.5007   25.6905  -73.7934 C.3       5 UNK         0.0783 
     46 C46       -76.4119   26.4559  -72.8161 C.3       11 UNK        -0.0857 
     47 S47       -76.8483   25.5490  -71.2875 S.3       11 UNK        -0.2512 
     48 C48       -77.3513   26.8693  -70.1086 C.3       11 UNK         0.0225 
     49 N         -76.0983   24.4371  -74.2605 N.am      5 UNK        -0.4615 
     50 C         -75.4418   23.5132  -74.9745 C.2       4 UNK         0.5053 
     51 O         -74.2580   23.6097  -75.2960 O.2       4 UNK        -0.5105 
     52 CA        -76.2595   22.3036  -75.4514 C.3       4 UNK         0.0263 
     53 CB        -76.4427   21.2873  -74.3130 C.3       4 UNK        -0.1981 
     54 N         -77.5675   22.6842  -75.9918 N.am      4 UNK        -0.4224 
     55 C         -77.7482   23.4423  -77.0839 C.2       3 UNK         0.4895 
     56 O         -76.8280   23.8978  -77.7611 O.2       3 UNK        -0.5091 
     57 CA        -79.1981   23.7710  -77.4739 C.3       3 UNK         0.0250 
     58 CB        -79.7676   22.6820  -78.3969 C.3       3 UNK        -0.1996 
     59 N         -80.0770   23.9442  -76.3138 N.am      3 UNK        -0.4254 
     60 C         -80.0019   24.9757  -75.4629 C.2       2 UNK         0.5004 
     61 O         -79.1928   25.9008  -75.5694 O.2       2 UNK        -0.5226 
     62 CA        -80.9730   24.9627  -74.2802 C.3       2 UNK         0.0269 
     63 CB        -80.2001   24.8268  -72.9543 C.3       2 UNK        -0.1926 
     64 N         -81.7685   26.1906  -74.3129 N.am      2 UNK        -0.4687 
     65 C         -82.9144   26.3727  -73.6430 C.2       1 UNK         0.5165 
     66 O         -83.3767   25.5311  -72.8656 O.2       1 UNK        -0.5079 
     67 H67       -86.4493   27.8584  -70.9785 H         1 UNK         0.0900 
     68 H68       -86.9884   29.4812  -71.4133 H         1 UNK         0.0900 
     69 H69       -87.7894   28.0687  -72.1073 H         1 UNK         0.0900 
     70 H70       -84.5664   27.2276  -72.0459 H         1 UNK         0.2959 
     71 H71       -84.2123   27.5230  -74.8379 H         1 UNK         0.1079 
     72 H72       -82.2227   28.9005  -74.9356 H         1 UNK         0.0837 
     73 H73       -83.4887   29.8258  -74.2183 H         1 UNK         0.0837 
     74 H74       -80.1234   30.3159  -74.0288 H         1 UNK         0.0685 
     75 H75       -80.0495   28.5692  -74.0494 H         1 UNK         0.0685 
     76 H76       -79.5374   27.4910  -71.6055 H         1 UNK         0.1434 
     77 H77       -75.8442   29.1452  -70.1896 H         1 UNK         0.1329 
     78 H78       -78.2008   31.2986  -73.0482 H         1 UNK         0.1335 
     79 H79       -76.3359   32.4076  -71.8599 H         1 UNK         0.0680 
     80 H80       -75.3586   31.5476  -70.6993 H         1 UNK         0.0680 
     81 H81       -74.1433   28.8051  -72.3873 H         1 UNK         0.1032 
     82 H82       -73.6526   29.9239  -71.1421 H         1 UNK         0.1032 
     83 H83       -71.8128   30.7486  -72.6729 H         1 UNK         0.0461 
     84 H84       -69.8369   27.4439  -71.8132 H         1 UNK         0.3453 
     85 H85       -70.3577   27.8778  -73.4218 H         1 UNK         0.3453 
     86 H86       -72.8301   28.6434  -74.4835 H         1 UNK         0.2984 
     87 H87       -72.2449   29.5444  -76.9501 H         1 UNK         0.0554 
     88 H88       -70.1107   30.6719  -77.5080 H         1 UNK         0.0847 
     89 H89       -70.2306   29.1490  -78.3734 H         1 UNK         0.0847 
     90 H90       -69.1899   29.2802  -76.9561 H         1 UNK         0.0847 
     91 H91       -72.2772   27.3433  -76.8979 H         1 UNK         0.3141 
     92 H92       -70.1336   24.8030  -76.2211 H         1 UNK         0.0743 
     93 H93       -70.4815   24.9973  -73.7690 H         1 UNK         0.0784 
     94 H94       -72.1813   25.3705  -74.0103 H         1 UNK         0.0784 
     95 H95       -71.5543   23.7781  -74.4350 H         1 UNK         0.0784 
     96 H96       -73.0191   24.8042  -76.2828 H         1 UNK         0.3213 
     97 H97       -73.2966   25.2178  -79.8246 H         1 UNK         0.0855 
     98 H98       -73.9356   22.8626  -77.9654 H         1 UNK         0.0814 
     99 H99       -72.9651   22.7689  -79.4292 H         1 UNK         0.0814 
    100 H100      -74.6714   23.1732  -79.5358 H         1 UNK         0.0814 
    101 H101      -75.3048   24.9633  -77.8433 H         1 UNK         0.3105 
    102 H102      -75.5349   28.4457  -76.9474 H         1 UNK         0.0547 
    103 H103      -77.8975   27.8732  -77.4906 H         1 UNK         0.0837 
    104 H104      -77.3672   26.4542  -78.3888 H         1 UNK         0.0837 
    105 H105      -76.9416   28.0621  -78.9527 H         1 UNK         0.0837 
    106 H106      -76.8531   26.1266  -75.9331 H         1 UNK         0.3020 
    107 H107      -74.5730   25.4424  -73.2728 H         1 UNK         0.1245 
    108 H108      -77.3361   26.7516  -73.3166 H         1 UNK         0.0781 
    109 H109      -75.9068   27.3767  -72.5301 H         1 UNK         0.0781 
    110 H110      -76.5520   27.0080  -69.3790 H         1 UNK         0.0836 
    111 H111      -78.2206   26.5297  -69.5437 H         1 UNK         0.0836 
    112 H112      -77.0707   24.2901  -74.0371 H         1 UNK         0.3022 
    113 H113      -75.6962   21.8204  -76.2528 H         1 UNK         0.0747 
    114 H114      -76.9442   20.3851  -74.6638 H         1 UNK         0.0793 
    115 H115      -75.4778   20.9813  -73.9060 H         1 UNK         0.0793 
    116 H116      -77.0278   21.6986  -73.4893 H         1 UNK         0.0793 
    117 H117      -78.3824   22.3463  -75.5017 H         1 UNK         0.3047 
    118 H118      -79.1827   24.7115  -78.0291 H         1 UNK         0.0822 
    119 H119      -80.7654   22.9432  -78.7501 H         1 UNK         0.0807 
    120 H120      -79.8303   21.7153  -77.8956 H         1 UNK         0.0807 
    121 H121      -79.1384   22.5513  -79.2786 H         1 UNK         0.0807 
    122 H122      -80.7761   23.2302  -76.1643 H         1 UNK         0.2946 
    123 H123      -81.6491   24.1102  -74.3794 H         1 UNK         0.1144 
    124 H124      -79.4764   25.6306  -72.8345 H         1 UNK         0.0793 
    125 H125      -79.6469   23.8876  -72.9195 H         1 UNK         0.0793 
    126 H126      -80.8634   24.8404  -72.0899 H         1 UNK         0.0793 
    127 H127      -81.4279   26.9044  -74.9429 H         1 UNK         0.2896 
@<TRIPOS>BOND
     1    1    2 1    
     2    1   67 1    
     3    1   68 1    
     4    1   69 1    
     5    2    3 2    
     6    2    4 am   BACKBONE|DICT|INTERRES
     7    4    5 1    
     8    4   70 1    
     9    5    6 1    
    10    5   65 1    
    11    5   71 1    
    12    6    7 1    
    13    6   72 1    
    14    6   73 1    
    15    7    8 1    
    16    8    9 1    
    17    8   74 1    
    18    8   75 1    
    19    9   10 ar   
    20    9   14 ar   
    21   10   11 ar   
    22   10   76 1    
    23   11   12 ar   
    24   11   48 1    
    25   12   13 ar   
    26   12   77 1    
    27   13   14 ar   
    28   13   15 1    
    29   14   78 1    
    30   15   16 1    
    31   15   79 1    
    32   15   80 1    
    33   16   17 1    
    34   17   18 1    
    35   17   81 1    
    36   17   82 1    
    37   18   19 1    
    38   18   22 1    
    39   18   83 1    
    40   19   20 am   BACKBONE|DICT|INTERRES
    41   19   21 2    
    42   20   84 1    
    43   20   85 1    
    44   22   23 am   BACKBONE|DICT|INTERRES
    45   22   86 1    
    46   23   24 2    
    47   23   25 1    
    48   25   26 1    
    49   25   27 1    
    50   25   87 1    
    51   26   88 1    
    52   26   89 1    
    53   26   90 1    
    54   27   28 am   BACKBONE|DICT|INTERRES
    55   27   91 1    
    56   28   29 2    
    57   28   30 1    
    58   30   31 1    
    59   30   32 1    
    60   30   92 1    
    61   31   93 1    
    62   31   94 1    
    63   31   95 1    
    64   32   33 am   BACKBONE|DICT|INTERRES
    65   32   96 1    
    66   33   34 2    
    67   33   35 1    
    68   35   36 1    
    69   35   37 1    
    70   35   97 1    
    71   36   98 1    
    72   36   99 1    
    73   36  100 1    
    74   37   38 am   BACKBONE|DICT|INTERRES
    75   37  101 1    
    76   38   39 2    
    77   38   40 1    
    78   40   41 1    
    79   40   42 1    
    80   40  102 1    
    81   41  103 1    
    82   41  104 1    
    83   41  105 1    
    84   42   43 am   BACKBONE|DICT|INTERRES
    85   42  106 1    
    86   43   44 2    
    87   43   45 1    
    88   45   46 1    
    89   45   49 1    
    90   45  107 1    
    91   46   47 1    
    92   46  108 1    
    93   46  109 1    
    94   47   48 1    
    95   48  110 1    
    96   48  111 1    
    97   49   50 am   BACKBONE|DICT|INTERRES
    98   49  112 1    
    99   50   51 2    
   100   50   52 1    
   101   52   53 1    
   102   52   54 1    
   103   52  113 1    
   104   53  114 1    
   105   53  115 1    
   106   53  116 1    
   107   54   55 am   BACKBONE|DICT|INTERRES
   108   54  117 1    
   109   55   56 2    
   110   55   57 1    
   111   57   58 1    
   112   57   59 1    
   113   57  118 1    
   114   58  119 1    
   115   58  120 1    
   116   58  121 1    
   117   59   60 am   BACKBONE|DICT|INTERRES
   118   59  122 1    
   119   60   61 2    
   120   60   62 1    
   121   62   63 1    
   122   62   64 1    
   123   62  123 1    
   124   63  124 1    
   125   63  125 1    
   126   63  126 1    
   127   64   65 am   BACKBONE|DICT|INTERRES
   128   64  127 1    
   129   65   66 2    
@<TRIPOS>SUBSTRUCTURE
     1 UNK         1 GROUP             0       ****    0 ROOT    
