@<TRIPOS>MOLECULE
3R135
127   129    1
SMALL
USER_CHARGES


@<TRIPOS>ATOM
      1 CA        -80.6699   24.3785  -71.9077 C.3       0 UNK        -0.1998 
      2 C         -82.0218   25.0585  -72.0651 C.2       0 UNK         0.4909 
      3 O         -82.9657   24.7124  -71.3548 O.2       0 UNK        -0.5240 
      4 N         -82.1246   26.0112  -72.9993 N.am      1 UNK        -0.4739 
      5 CA        -83.3387   26.7976  -73.2801 C.3       1 UNK         0.0864 
      6 C6        -83.0522   28.3241  -73.3965 C.3       11 UNK        -0.0881 
      7 S7        -81.9555   28.9885  -72.0955 S.3       11 UNK        -0.2682 
      8 C8        -80.4306   29.1810  -73.0737 C.3       11 UNK         0.0289 
      9 C9        -79.1689   29.1026  -72.2292 C.ar      11 UNK        -0.0687 
     10 C10       -78.8958   27.9574  -71.4762 C.ar      11 UNK        -0.0823 
     11 C11       -77.7102   27.8530  -70.7442 C.ar      11 UNK        -0.0830 
     12 C12       -76.7884   28.9037  -70.7719 C.ar      11 UNK        -0.1021 
     13 C13       -77.0489   30.0513  -71.5260 C.ar      11 UNK        -0.0753 
     14 C14       -78.2409   30.1468  -72.2500 C.ar      11 UNK        -0.0933 
     15 C15       -76.0492   31.1949  -71.5628 C.3       11 UNK         0.0166 
     16 S16       -74.9455   31.0564  -73.0001 S.3       11 UNK        -0.2615 
     17 C17       -73.6660   29.9162  -72.3716 C.3       11 UNK        -0.0865 
     18 CA        -72.4474   29.8366  -73.3323 C.3       10 UNK         0.0862 
     19 C         -71.1874   29.2095  -72.6692 C.2       10 UNK         0.5551 
     20 N         -70.3777   28.4445  -73.3912 N.am      10 UNK        -0.7319 
     21 O         -70.9200   29.4385  -71.4922 O.2       10 UNK        -0.5018 
     22 N         -72.8114   29.1695  -74.5918 N.am      10 UNK        -0.4509 
     23 C         -72.9386   29.7609  -75.7829 C.2       10 UNK         0.4899 
     24 O         -72.7180   30.9538  -75.9994 O.2       10 UNK        -0.4839 
     25 CA        -73.3838   28.8317  -76.9211 C.3       9 UNK         0.0222 
     26 CB        -73.9119   29.5883  -78.1595 C.3       9 UNK        -0.1966 
     27 N         -72.3337   27.8755  -77.2747 N.am      9 UNK        -0.4218 
     28 C         -71.1418   28.1166  -77.8420 C.2       9 UNK         0.5020 
     29 O         -70.7485   29.2350  -78.1753 O.2       9 UNK        -0.5274 
     30 CA        -70.2135   26.9064  -78.0767 C.3       8 UNK         0.0270 
     31 CB        -68.8738   27.0945  -77.3432 C.3       8 UNK        -0.1976 
     32 N         -70.7928   25.6266  -77.6609 N.am      8 UNK        -0.4313 
     33 C         -71.7456   24.9343  -78.2935 C.2       8 UNK         0.5041 
     34 O         -72.2299   25.2762  -79.3722 O.2       8 UNK        -0.5577 
     35 CA        -72.2828   23.6708  -77.5918 C.3       7 UNK         0.0284 
     36 CB        -71.4497   22.4342  -77.9817 C.3       7 UNK        -0.1958 
     37 N         -72.4319   23.7750  -76.1274 N.am      7 UNK        -0.4454 
     38 C         -71.4865   23.9348  -75.1878 C.2       7 UNK         0.5089 
     39 O         -70.2895   24.0720  -75.4448 O.2       7 UNK        -0.5125 
     40 CA        -71.9427   23.9330  -73.7167 C.3       6 UNK         0.0408 
     41 CB        -71.0460   24.8088  -72.8177 C.3       6 UNK        -0.1791 
     42 N         -73.3612   24.2491  -73.5045 N.am      6 UNK        -0.4762 
     43 C         -73.9925   25.4164  -73.7089 C.2       6 UNK         0.5007 
     44 O         -73.4736   26.4131  -74.2213 O.2       6 UNK        -0.5032 
     45 CA        -75.4435   25.4572  -73.1849 C.3       5 UNK         0.0783 
     46 C46       -75.4562   25.5461  -71.6380 C.3       11 UNK        -0.0857 
     47 S47       -77.1006   25.1556  -70.9538 S.3       11 UNK        -0.2512 
     48 C48       -77.4393   26.6089  -69.9131 C.3       11 UNK         0.0225 
     49 N         -76.2571   26.5140  -73.7938 N.am      5 UNK        -0.4615 
     50 C         -76.6686   26.5152  -75.0660 C.2       4 UNK         0.5053 
     51 O         -76.3159   25.6831  -75.9057 O.2       4 UNK        -0.5105 
     52 CA        -77.6605   27.6228  -75.4604 C.3       4 UNK         0.0263 
     53 CB        -76.9425   28.8434  -76.0519 C.3       4 UNK        -0.1981 
     54 N         -78.6465   27.1230  -76.4223 N.am      4 UNK        -0.4224 
     55 C         -79.6711   26.3295  -76.0895 C.2       3 UNK         0.4895 
     56 O         -79.9650   26.0446  -74.9229 O.2       3 UNK        -0.5091 
     57 CA        -80.5090   25.7530  -77.2417 C.3       3 UNK         0.0250 
     58 CB        -79.7303   24.6788  -78.0233 C.3       3 UNK        -0.1996 
     59 N         -81.7025   25.1676  -76.6463 N.am      3 UNK        -0.4254 
     60 C         -82.8898   24.9363  -77.2166 C.2       2 UNK         0.5004 
     61 O         -83.1259   25.0964  -78.4142 O.2       2 UNK        -0.5226 
     62 CA        -84.0115   24.4734  -76.2639 C.3       2 UNK         0.0269 
     63 CB        -84.0794   22.9387  -76.2115 C.3       2 UNK        -0.1926 
     64 N         -83.8055   24.9990  -74.9078 N.am      2 UNK        -0.4687 
     65 C         -84.0324   26.2753  -74.5603 C.2       1 UNK         0.5165 
     66 O         -84.7001   27.0452  -75.2535 O.2       1 UNK        -0.5079 
     67 H67       -79.9148   24.8083  -72.5654 H         1 UNK         0.0900 
     68 H68       -80.7532   23.3166  -72.1364 H         1 UNK         0.0900 
     69 H69       -80.3168   24.4795  -70.8818 H         1 UNK         0.0900 
     70 H70       -81.3182   26.2168  -73.5844 H         1 UNK         0.2959 
     71 H71       -84.0567   26.6651  -72.4680 H         1 UNK         0.1079 
     72 H72       -82.6266   28.5661  -74.3728 H         1 UNK         0.0837 
     73 H73       -83.9915   28.8782  -73.3475 H         1 UNK         0.0837 
     74 H74       -80.4812   30.1238  -73.6206 H         1 UNK         0.0685 
     75 H75       -80.3782   28.3946  -73.8246 H         1 UNK         0.0685 
     76 H76       -79.6073   27.1436  -71.4643 H         1 UNK         0.1434 
     77 H77       -75.8693   28.8315  -70.2065 H         1 UNK         0.1329 
     78 H78       -78.4359   31.0307  -72.8420 H         1 UNK         0.1335 
     79 H79       -75.4675   31.2336  -70.6406 H         1 UNK         0.0680 
     80 H80       -76.5830   32.1446  -71.6230 H         1 UNK         0.0680 
     81 H81       -74.1017   28.9270  -72.2213 H         1 UNK         0.1032 
     82 H82       -73.3611   30.2736  -71.3864 H         1 UNK         0.1032 
     83 H83       -72.1371   30.8608  -73.5464 H         1 UNK         0.0461 
     84 H84       -69.5530   28.0558  -72.9627 H         1 UNK         0.3453 
     85 H85       -70.5758   28.2767  -74.3634 H         1 UNK         0.3453 
     86 H86       -73.0034   28.1719  -74.5109 H         1 UNK         0.2984 
     87 H87       -74.2035   28.2281  -76.5316 H         1 UNK         0.0554 
     88 H88       -74.2743   28.8978  -78.9208 H         1 UNK         0.0847 
     89 H89       -73.1476   30.2185  -78.6148 H         1 UNK         0.0847 
     90 H90       -74.7427   30.2409  -77.8890 H         1 UNK         0.0847 
     91 H91       -72.5265   26.9167  -77.0228 H         1 UNK         0.3141 
     92 H92       -70.0146   26.8585  -79.1492 H         1 UNK         0.0743 
     93 H93       -69.0099   27.1467  -76.2622 H         1 UNK         0.0784 
     94 H94       -68.1878   26.2740  -77.5547 H         1 UNK         0.0784 
     95 H95       -68.3786   28.0151  -77.6553 H         1 UNK         0.0784 
     96 H96       -70.4445   25.2215  -76.7920 H         1 UNK         0.3213 
     97 H97       -73.2926   23.5156  -77.9759 H         1 UNK         0.0855 
     98 H98       -70.4163   22.5126  -77.6425 H         1 UNK         0.0814 
     99 H99       -71.4246   22.3085  -79.0650 H         1 UNK         0.0814 
    100 H100      -71.8726   21.5222  -77.5604 H         1 UNK         0.0814 
    101 H101      -73.3838   23.7130  -75.7929 H         1 UNK         0.3105 
    102 H102      -71.8198   22.9022  -73.3813 H         1 UNK         0.0547 
    103 H103      -70.0059   24.4832  -72.8578 H         1 UNK         0.0837 
    104 H104      -71.0704   25.8528  -73.1247 H         1 UNK         0.0837 
    105 H105      -71.3577   24.7592  -71.7746 H         1 UNK         0.0837 
    106 H106      -73.8948   23.4961  -73.0903 H         1 UNK         0.3020 
    107 H107      -75.9024   24.5081  -73.4733 H         1 UNK         0.1245 
    108 H108      -75.1259   26.5320  -71.3070 H         1 UNK         0.0781 
    109 H109      -74.7592   24.8339  -71.1919 H         1 UNK         0.0781 
    110 H110      -76.6066   26.7667  -69.2258 H         1 UNK         0.0836 
    111 H111      -78.3107   26.3995  -69.2910 H         1 UNK         0.0836 
    112 H112      -76.5853   27.2348  -73.1670 H         1 UNK         0.3022 
    113 H113      -78.1827   27.9455  -74.5602 H         1 UNK         0.0747 
    114 H114      -77.6386   29.6650  -76.2212 H         1 UNK         0.0793 
    115 H115      -76.1708   29.2117  -75.3741 H         1 UNK         0.0793 
    116 H116      -76.4699   28.6054  -77.0046 H         1 UNK         0.0793 
    117 H117      -78.4444   27.2788  -77.3991 H         1 UNK         0.3047 
    118 H118      -80.8002   26.5682  -77.9073 H         1 UNK         0.0822 
    119 H119      -78.8329   25.0955  -78.4820 H         1 UNK         0.0807 
    120 H120      -80.3345   24.2547  -78.8254 H         1 UNK         0.0807 
    121 H121      -79.4149   23.8607  -77.3742 H         1 UNK         0.0807 
    122 H122      -81.6120   25.0386  -75.6469 H         1 UNK         0.2946 
    123 H123      -84.9595   24.8499  -76.6556 H         1 UNK         0.1144 
    124 H124      -84.2506   22.5232  -77.2056 H         1 UNK         0.0793 
    125 H125      -84.8968   22.5999  -75.5748 H         1 UNK         0.0793 
    126 H126      -83.1542   22.5036  -75.8314 H         1 UNK         0.0793 
    127 H127      -83.2877   24.4197  -74.2623 H         1 UNK         0.2896 
@<TRIPOS>BOND
     1    1    2 1    
     2    1   67 1    
     3    1   68 1    
     4    1   69 1    
     5    2    3 2    
     6    2    4 am   BACKBONE|DICT|INTERRES
     7    4    5 1    
     8    4   70 1    
     9    5    6 1    
    10    5   65 1    
    11    5   71 1    
    12    6    7 1    
    13    6   72 1    
    14    6   73 1    
    15    7    8 1    
    16    8    9 1    
    17    8   74 1    
    18    8   75 1    
    19    9   10 ar   
    20    9   14 ar   
    21   10   11 ar   
    22   10   76 1    
    23   11   12 ar   
    24   11   48 1    
    25   12   13 ar   
    26   12   77 1    
    27   13   14 ar   
    28   13   15 1    
    29   14   78 1    
    30   15   16 1    
    31   15   79 1    
    32   15   80 1    
    33   16   17 1    
    34   17   18 1    
    35   17   81 1    
    36   17   82 1    
    37   18   19 1    
    38   18   22 1    
    39   18   83 1    
    40   19   20 am   BACKBONE|DICT|INTERRES
    41   19   21 2    
    42   20   84 1    
    43   20   85 1    
    44   22   23 am   BACKBONE|DICT|INTERRES
    45   22   86 1    
    46   23   24 2    
    47   23   25 1    
    48   25   26 1    
    49   25   27 1    
    50   25   87 1    
    51   26   88 1    
    52   26   89 1    
    53   26   90 1    
    54   27   28 am   BACKBONE|DICT|INTERRES
    55   27   91 1    
    56   28   29 2    
    57   28   30 1    
    58   30   31 1    
    59   30   32 1    
    60   30   92 1    
    61   31   93 1    
    62   31   94 1    
    63   31   95 1    
    64   32   33 am   BACKBONE|DICT|INTERRES
    65   32   96 1    
    66   33   34 2    
    67   33   35 1    
    68   35   36 1    
    69   35   37 1    
    70   35   97 1    
    71   36   98 1    
    72   36   99 1    
    73   36  100 1    
    74   37   38 am   BACKBONE|DICT|INTERRES
    75   37  101 1    
    76   38   39 2    
    77   38   40 1    
    78   40   41 1    
    79   40   42 1    
    80   40  102 1    
    81   41  103 1    
    82   41  104 1    
    83   41  105 1    
    84   42   43 am   BACKBONE|DICT|INTERRES
    85   42  106 1    
    86   43   44 2    
    87   43   45 1    
    88   45   46 1    
    89   45   49 1    
    90   45  107 1    
    91   46   47 1    
    92   46  108 1    
    93   46  109 1    
    94   47   48 1    
    95   48  110 1    
    96   48  111 1    
    97   49   50 am   BACKBONE|DICT|INTERRES
    98   49  112 1    
    99   50   51 2    
   100   50   52 1    
   101   52   53 1    
   102   52   54 1    
   103   52  113 1    
   104   53  114 1    
   105   53  115 1    
   106   53  116 1    
   107   54   55 am   BACKBONE|DICT|INTERRES
   108   54  117 1    
   109   55   56 2    
   110   55   57 1    
   111   57   58 1    
   112   57   59 1    
   113   57  118 1    
   114   58  119 1    
   115   58  120 1    
   116   58  121 1    
   117   59   60 am   BACKBONE|DICT|INTERRES
   118   59  122 1    
   119   60   61 2    
   120   60   62 1    
   121   62   63 1    
   122   62   64 1    
   123   62  123 1    
   124   63  124 1    
   125   63  125 1    
   126   63  126 1    
   127   64   65 am   BACKBONE|DICT|INTERRES
   128   64  127 1    
   129   65   66 2    
@<TRIPOS>SUBSTRUCTURE
     1 UNK         1 GROUP             0       ****    0 ROOT    
