@<TRIPOS>MOLECULE
3R135
127   129    1
SMALL
USER_CHARGES


@<TRIPOS>ATOM
      1 CA        -80.2069   21.6727  -71.7843 C.3       0 UNK        -0.1998 
      2 C         -81.0585   22.8353  -72.2694 C.2       0 UNK         0.4909 
      3 O         -81.8139   22.6839  -73.2302 O.2       0 UNK        -0.5240 
      4 N         -80.9340   24.0016  -71.6236 N.am      1 UNK        -0.4739 
      5 CA        -81.6047   25.2555  -71.9854 C.3       1 UNK         0.0864 
      6 C6        -81.3795   26.3788  -70.9366 C.3       11 UNK        -0.0881 
      7 S7        -79.6814   26.4792  -70.2604 S.3       11 UNK        -0.2682 
      8 C8        -79.4645   28.2705  -70.0310 C.3       11 UNK         0.0289 
      9 C9        -78.6430   28.8841  -71.1537 C.ar      11 UNK        -0.0687 
     10 C10       -79.2656   29.4815  -72.2540 C.ar      11 UNK        -0.0823 
     11 C11       -78.5023   30.0802  -73.2634 C.ar      11 UNK        -0.0830 
     12 C12       -77.1069   30.0795  -73.1600 C.ar      11 UNK        -0.1021 
     13 C13       -76.4753   29.4563  -72.0808 C.ar      11 UNK        -0.0753 
     14 C14       -77.2477   28.8673  -71.0776 C.ar      11 UNK        -0.0933 
     15 C15       -74.9600   29.3830  -72.0158 C.3       11 UNK         0.0166 
     16 S16       -74.2399   30.8367  -71.1932 S.3       11 UNK        -0.2615 
     17 C17       -72.5466   30.2439  -70.8376 C.3       11 UNK        -0.0865 
     18 CA        -71.5191   30.5792  -71.9523 C.3       10 UNK         0.0862 
     19 C         -70.0662   30.2769  -71.4789 C.2       10 UNK         0.5551 
     20 N         -69.3319   29.3688  -72.1104 N.am      10 UNK        -0.7319 
     21 O         -69.5957   30.8848  -70.5206 O.2       10 UNK        -0.5018 
     22 N         -71.8938   29.9456  -73.2254 N.am      10 UNK        -0.4509 
     23 C         -71.4887   30.3142  -74.4426 C.2       10 UNK         0.4899 
     24 O         -70.6959   31.2347  -74.6475 O.2       10 UNK        -0.4839 
     25 CA        -72.0890   29.5238  -75.6265 C.3       9 UNK         0.0222 
     26 CB        -71.6545   30.0987  -76.9881 C.3       9 UNK        -0.1966 
     27 N         -71.7913   28.0855  -75.6079 N.am      9 UNK        -0.4218 
     28 C         -72.2641   27.1787  -74.7410 C.2       9 UNK         0.5020 
     29 O         -72.9794   27.4552  -73.7778 O.2       9 UNK        -0.5274 
     30 CA        -71.9362   25.7152  -75.0537 C.3       8 UNK         0.0270 
     31 CB        -72.1632   24.7828  -73.8489 C.3       8 UNK        -0.1976 
     32 N         -72.8261   25.3209  -76.1378 N.am      8 UNK        -0.4313 
     33 C         -72.4485   24.8498  -77.3303 C.2       8 UNK         0.5041 
     34 O         -71.2863   24.5686  -77.6261 O.2       8 UNK        -0.5577 
     35 CA        -73.5565   24.7148  -78.3878 C.3       7 UNK         0.0284 
     36 CB        -74.4365   23.4846  -78.1116 C.3       7 UNK        -0.1958 
     37 N         -74.3956   25.9140  -78.4614 N.am      7 UNK        -0.4454 
     38 C         -73.9887   27.1235  -78.8693 C.2       7 UNK         0.5089 
     39 O         -72.8581   27.3485  -79.3011 O.2       7 UNK        -0.5125 
     40 CA        -74.9885   28.2944  -78.7682 C.3       6 UNK         0.0408 
     41 CB        -75.8213   28.4268  -80.0579 C.3       6 UNK        -0.1791 
     42 N         -75.8393   28.2803  -77.5672 N.am      6 UNK        -0.4762 
     43 C         -76.8022   27.4077  -77.2373 C.2       6 UNK         0.5007 
     44 O         -77.1514   26.4699  -77.9580 O.2       6 UNK        -0.5032 
     45 CA        -77.4548   27.5911  -75.8502 C.3       5 UNK         0.0783 
     46 C46       -78.7999   28.3538  -75.9566 C.3       11 UNK        -0.0857 
     47 S47       -78.5518   30.1575  -76.0679 S.3       11 UNK        -0.2512 
     48 C48       -79.1917   30.7339  -74.4571 C.3       11 UNK         0.0225 
     49 N         -77.6253   26.3139  -75.1549 N.am      5 UNK        -0.4615 
     50 C         -76.6692   25.4040  -74.9190 C.2       4 UNK         0.5053 
     51 O         -75.4848   25.5510  -75.2212 O.2       4 UNK        -0.5105 
     52 CA        -77.1215   24.0924  -74.2616 C.3       4 UNK         0.0263 
     53 CB        -77.2046   24.2466  -72.7340 C.3       4 UNK        -0.1981 
     54 N         -78.4179   23.6647  -74.7930 N.am      4 UNK        -0.4224 
     55 C         -78.5727   22.9695  -75.9304 C.2       3 UNK         0.4895 
     56 O         -77.6342   22.5125  -76.5831 O.2       3 UNK        -0.5091 
     57 CA        -80.0085   22.7316  -76.4336 C.3       3 UNK         0.0250 
     58 CB        -80.4901   21.3232  -76.0487 C.3       3 UNK        -0.1996 
     59 N         -80.9578   23.7319  -75.9360 N.am      3 UNK        -0.4254 
     60 C         -81.1039   24.9542  -76.4729 C.2       2 UNK         0.5004 
     61 O         -80.5248   25.3224  -77.4938 O.2       2 UNK        -0.5226 
     62 CA        -82.0360   25.9506  -75.7541 C.3       2 UNK         0.0269 
     63 CB        -83.4138   25.9831  -76.4350 C.3       2 UNK        -0.1926 
     64 N         -82.2139   25.6890  -74.3221 N.am      2 UNK        -0.4687 
     65 C         -81.2275   25.6900  -73.4155 C.2       1 UNK         0.5165 
     66 O         -80.0548   25.9423  -73.6934 O.2       1 UNK        -0.5079 
     67 H67       -79.6423   21.9285  -70.8878 H         1 UNK         0.0900 
     68 H68       -80.8388   20.8154  -71.5542 H         1 UNK         0.0900 
     69 H69       -79.4994   21.3780  -72.5588 H         1 UNK         0.0900 
     70 H70       -80.2753   24.0858  -70.8616 H         1 UNK         0.2959 
     71 H71       -82.6754   25.0393  -71.9865 H         1 UNK         0.1079 
     72 H72       -82.0431   26.2063  -70.0879 H         1 UNK         0.0837 
     73 H73       -81.6791   27.3472  -71.3420 H         1 UNK         0.0837 
     74 H74       -80.4314   28.7677  -69.9412 H         1 UNK         0.0685 
     75 H75       -78.9571   28.4366  -69.0794 H         1 UNK         0.0685 
     76 H76       -80.3449   29.4844  -72.3187 H         1 UNK         0.1434 
     77 H77       -76.5105   30.5443  -73.9331 H         1 UNK         0.1329 
     78 H78       -76.7624   28.3909  -70.2367 H         1 UNK         0.1335 
     79 H79       -74.5667   29.3183  -73.0294 H         1 UNK         0.0680 
     80 H80       -74.6549   28.4691  -71.5036 H         1 UNK         0.0680 
     81 H81       -72.5626   29.1702  -70.6412 H         1 UNK         0.1032 
     82 H82       -72.2451   30.7092  -69.8969 H         1 UNK         0.1032 
     83 H83       -71.5542   31.6587  -72.1119 H         1 UNK         0.0461 
     84 H84       -68.3918   29.1858  -71.7963 H         1 UNK         0.3453 
     85 H85       -69.7072   28.8755  -72.9036 H         1 UNK         0.3453 
     86 H86       -72.4820   29.1177  -73.1664 H         1 UNK         0.2984 
     87 H87       -73.1732   29.6341  -75.5574 H         1 UNK         0.0554 
     88 H88       -71.9231   31.1527  -77.0723 H         1 UNK         0.0847 
     89 H89       -72.1355   29.5795  -77.8159 H         1 UNK         0.0847 
     90 H90       -70.5756   30.0254  -77.1313 H         1 UNK         0.0847 
     91 H91       -71.2135   27.7482  -76.3651 H         1 UNK         0.3141 
     92 H92       -70.8879   25.6536  -75.3533 H         1 UNK         0.0743 
     93 H93       -73.2032   24.7933  -73.5184 H         1 UNK         0.0784 
     94 H94       -71.9028   23.7531  -74.0938 H         1 UNK         0.0784 
     95 H95       -71.5463   25.0834  -73.0012 H         1 UNK         0.0784 
     96 H96       -73.8160   25.5043  -75.9674 H         1 UNK         0.3213 
     97 H97       -73.0764   24.5810  -79.3596 H         1 UNK         0.0855 
     98 H98       -74.9738   23.5714  -77.1662 H         1 UNK         0.0814 
     99 H99       -73.8339   22.5767  -78.0620 H         1 UNK         0.0814 
    100 H100      -75.1755   23.3401  -78.8999 H         1 UNK         0.0814 
    101 H101      -75.3607   25.8315  -78.1528 H         1 UNK         0.3105 
    102 H102      -74.3909   29.2027  -78.6812 H         1 UNK         0.0547 
    103 H103      -76.4893   29.2868  -80.0126 H         1 UNK         0.0837 
    104 H104      -76.4269   27.5408  -80.2499 H         1 UNK         0.0837 
    105 H105      -75.1730   28.5655  -80.9240 H         1 UNK         0.0837 
    106 H106      -75.6290   29.0111  -76.9016 H         1 UNK         0.3020 
    107 H107      -76.7689   28.1621  -75.2220 H         1 UNK         0.1245 
    108 H108      -79.4216   28.1508  -75.0839 H         1 UNK         0.0781 
    109 H109      -79.3857   28.0154  -76.8139 H         1 UNK         0.0781 
    110 H110      -80.2679   30.5560  -74.4287 H         1 UNK         0.0836 
    111 H111      -79.0580   31.8144  -74.3918 H         1 UNK         0.0836 
    112 H112      -78.5572   26.1259  -74.7969 H         1 UNK         0.3022 
    113 H113      -76.3714   23.3297  -74.4821 H         1 UNK         0.0747 
    114 H114      -77.4966   23.3120  -72.2556 H         1 UNK         0.0793 
    115 H115      -76.2363   24.5337  -72.3218 H         1 UNK         0.0793 
    116 H116      -77.9205   25.0138  -72.4378 H         1 UNK         0.0793 
    117 H117      -79.2364   24.0628  -74.3512 H         1 UNK         0.3047 
    118 H118      -79.9836   22.7864  -77.5244 H         1 UNK         0.0822 
    119 H119      -81.5002   21.1349  -76.4126 H         1 UNK         0.0807 
    120 H120      -80.4882   21.1718  -74.9695 H         1 UNK         0.0807 
    121 H121      -79.8422   20.5602  -76.4825 H         1 UNK         0.0807 
    122 H122      -81.4696   23.4948  -75.0911 H         1 UNK         0.2946 
    123 H123      -81.5827   26.9391  -75.8538 H         1 UNK         0.1144 
    124 H124      -83.9302   25.0264  -76.3469 H         1 UNK         0.0793 
    125 H125      -83.3184   26.2050  -77.4990 H         1 UNK         0.0793 
    126 H126      -84.0533   26.7530  -76.0027 H         1 UNK         0.0793 
    127 H127      -83.1452   25.4310  -74.0276 H         1 UNK         0.2896 
@<TRIPOS>BOND
     1    1    2 1    
     2    1   67 1    
     3    1   68 1    
     4    1   69 1    
     5    2    3 2    
     6    2    4 am   BACKBONE|DICT|INTERRES
     7    4    5 1    
     8    4   70 1    
     9    5    6 1    
    10    5   65 1    
    11    5   71 1    
    12    6    7 1    
    13    6   72 1    
    14    6   73 1    
    15    7    8 1    
    16    8    9 1    
    17    8   74 1    
    18    8   75 1    
    19    9   10 ar   
    20    9   14 ar   
    21   10   11 ar   
    22   10   76 1    
    23   11   12 ar   
    24   11   48 1    
    25   12   13 ar   
    26   12   77 1    
    27   13   14 ar   
    28   13   15 1    
    29   14   78 1    
    30   15   16 1    
    31   15   79 1    
    32   15   80 1    
    33   16   17 1    
    34   17   18 1    
    35   17   81 1    
    36   17   82 1    
    37   18   19 1    
    38   18   22 1    
    39   18   83 1    
    40   19   20 am   BACKBONE|DICT|INTERRES
    41   19   21 2    
    42   20   84 1    
    43   20   85 1    
    44   22   23 am   BACKBONE|DICT|INTERRES
    45   22   86 1    
    46   23   24 2    
    47   23   25 1    
    48   25   26 1    
    49   25   27 1    
    50   25   87 1    
    51   26   88 1    
    52   26   89 1    
    53   26   90 1    
    54   27   28 am   BACKBONE|DICT|INTERRES
    55   27   91 1    
    56   28   29 2    
    57   28   30 1    
    58   30   31 1    
    59   30   32 1    
    60   30   92 1    
    61   31   93 1    
    62   31   94 1    
    63   31   95 1    
    64   32   33 am   BACKBONE|DICT|INTERRES
    65   32   96 1    
    66   33   34 2    
    67   33   35 1    
    68   35   36 1    
    69   35   37 1    
    70   35   97 1    
    71   36   98 1    
    72   36   99 1    
    73   36  100 1    
    74   37   38 am   BACKBONE|DICT|INTERRES
    75   37  101 1    
    76   38   39 2    
    77   38   40 1    
    78   40   41 1    
    79   40   42 1    
    80   40  102 1    
    81   41  103 1    
    82   41  104 1    
    83   41  105 1    
    84   42   43 am   BACKBONE|DICT|INTERRES
    85   42  106 1    
    86   43   44 2    
    87   43   45 1    
    88   45   46 1    
    89   45   49 1    
    90   45  107 1    
    91   46   47 1    
    92   46  108 1    
    93   46  109 1    
    94   47   48 1    
    95   48  110 1    
    96   48  111 1    
    97   49   50 am   BACKBONE|DICT|INTERRES
    98   49  112 1    
    99   50   51 2    
   100   50   52 1    
   101   52   53 1    
   102   52   54 1    
   103   52  113 1    
   104   53  114 1    
   105   53  115 1    
   106   53  116 1    
   107   54   55 am   BACKBONE|DICT|INTERRES
   108   54  117 1    
   109   55   56 2    
   110   55   57 1    
   111   57   58 1    
   112   57   59 1    
   113   57  118 1    
   114   58  119 1    
   115   58  120 1    
   116   58  121 1    
   117   59   60 am   BACKBONE|DICT|INTERRES
   118   59  122 1    
   119   60   61 2    
   120   60   62 1    
   121   62   63 1    
   122   62   64 1    
   123   62  123 1    
   124   63  124 1    
   125   63  125 1    
   126   63  126 1    
   127   64   65 am   BACKBONE|DICT|INTERRES
   128   64  127 1    
   129   65   66 2    
@<TRIPOS>SUBSTRUCTURE
     1 UNK         1 GROUP             0       ****    0 ROOT    
