@<TRIPOS>MOLECULE
3R135
127   129    1
SMALL
USER_CHARGES


@<TRIPOS>ATOM
      1 CA        -81.2421   31.4417  -76.7054 C.3       0 UNK        -0.1998 
      2 C         -81.7045   30.2796  -75.8390 C.2       0 UNK         0.4909 
      3 O         -82.9091   30.0755  -75.6852 O.2       0 UNK        -0.5240 
      4 N         -80.7535   29.5255  -75.2712 N.am      1 UNK        -0.4739 
      5 CA        -80.9749   28.3319  -74.4465 C.3       1 UNK         0.0864 
      6 C6        -81.7271   28.6429  -73.1195 C.3       11 UNK        -0.0881 
      7 S7        -81.3522   27.4425  -71.7926 S.3       11 UNK        -0.2682 
      8 C8        -80.1296   28.3495  -70.7906 C.3       11 UNK         0.0289 
      9 C9        -78.7462   28.3236  -71.4251 C.ar      11 UNK        -0.0687 
     10 C10       -77.8482   27.3017  -71.1061 C.ar      11 UNK        -0.0823 
     11 C11       -76.5773   27.2675  -71.6863 C.ar      11 UNK        -0.0830 
     12 C12       -76.2097   28.2660  -72.5932 C.ar      11 UNK        -0.1021 
     13 C13       -77.0976   29.2990  -72.9273 C.ar      11 UNK        -0.0753 
     14 C14       -78.3595   29.3213  -72.3248 C.ar      11 UNK        -0.0933 
     15 C15       -76.7693   30.3952  -73.9468 C.3       11 UNK         0.0166 
     16 S16       -75.0432   30.4707  -74.5397 S.3       11 UNK        -0.2615 
     17 C17       -74.2151   31.1698  -73.0746 C.3       11 UNK        -0.0865 
     18 CA        -72.6677   31.2525  -73.2295 C.3       10 UNK         0.0862 
     19 C         -71.9981   32.0199  -72.0475 C.2       10 UNK         0.5551 
     20 N         -70.7928   31.6602  -71.6220 N.am      10 UNK        -0.7319 
     21 O         -72.5623   32.9789  -71.5258 O.2       10 UNK        -0.5018 
     22 N         -72.0258   29.9635  -73.5568 N.am      10 UNK        -0.4509 
     23 C         -72.0625   28.8443  -72.8239 C.2       10 UNK         0.4899 
     24 O         -72.7287   28.7164  -71.7960 O.2       10 UNK        -0.4839 
     25 CA        -71.1742   27.6825  -73.3092 C.3       9 UNK         0.0222 
     26 CB        -71.3564   26.4064  -72.4690 C.3       9 UNK        -0.1966 
     27 N         -71.3690   27.3505  -74.7251 N.am      9 UNK        -0.4218 
     28 C         -70.7551   27.9704  -75.7418 C.2       9 UNK         0.5020 
     29 O         -70.1028   29.0059  -75.5969 O.2       9 UNK        -0.5274 
     30 CA        -70.8298   27.3381  -77.1396 C.3       8 UNK         0.0270 
     31 CB        -69.7000   26.3045  -77.3142 C.3       8 UNK        -0.1976 
     32 N         -72.1246   26.7312  -77.4686 N.am      8 UNK        -0.4313 
     33 C         -72.5705   26.5889  -78.7288 C.2       8 UNK         0.5041 
     34 O         -71.9385   26.9639  -79.7183 O.2       8 UNK        -0.5577 
     35 CA        -73.9380   25.9120  -78.9556 C.3       7 UNK         0.0284 
     36 CB        -73.7454   24.4513  -79.3942 C.3       7 UNK        -0.1958 
     37 N         -74.8130   25.9443  -77.7860 N.am      7 UNK        -0.4454 
     38 C         -75.3318   27.0565  -77.2487 C.2       7 UNK         0.5089 
     39 O         -75.2463   28.1668  -77.7733 O.2       7 UNK        -0.5125 
     40 CA        -76.0277   26.9245  -75.8825 C.3       6 UNK         0.0408 
     41 CB        -77.5292   27.2190  -76.0006 C.3       6 UNK        -0.1791 
     42 N         -75.8445   25.6330  -75.2118 N.am      6 UNK        -0.4762 
     43 C         -74.6766   25.1158  -74.7953 C.2       6 UNK         0.5007 
     44 O         -73.5891   25.6703  -74.9665 O.2       6 UNK        -0.5032 
     45 CA        -74.7163   23.7144  -74.1443 C.3       5 UNK         0.0783 
     46 C46       -74.6812   23.7875  -72.5967 C.3       11 UNK        -0.0857 
     47 S47       -76.1821   24.5243  -71.8558 S.3       11 UNK        -0.2512 
     48 C48       -75.5926   26.1650  -71.3205 C.3       11 UNK         0.0225 
     49 N         -75.8358   22.8922  -74.6147 N.am      5 UNK        -0.4615 
     50 C         -76.0575   22.5231  -75.8832 C.2       4 UNK         0.5053 
     51 O         -75.2909   22.7836  -76.8109 O.2       4 UNK        -0.5105 
     52 CA        -77.3662   21.7657  -76.1764 C.3       4 UNK         0.0263 
     53 CB        -77.0862   20.2634  -76.3424 C.3       4 UNK        -0.1981 
     54 N         -78.4258   21.9506  -75.1741 N.am      4 UNK        -0.4224 
     55 C         -79.0090   23.1184  -74.8681 C.2       3 UNK         0.4895 
     56 O         -78.6605   24.2041  -75.3364 O.2       3 UNK        -0.5091 
     57 CA        -80.1350   23.0647  -73.8229 C.3       3 UNK         0.0250 
     58 CB        -79.5798   23.3348  -72.4158 C.3       3 UNK        -0.1996 
     59 N         -81.1755   24.0496  -74.1098 N.am      3 UNK        -0.4254 
     60 C         -82.0628   23.9680  -75.1113 C.2       2 UNK         0.5004 
     61 O         -82.1566   22.9998  -75.8671 O.2       2 UNK        -0.5226 
     62 CA        -83.0182   25.1617  -75.2930 C.3       2 UNK         0.0269 
     63 CB        -84.3869   24.8575  -74.6624 C.3       2 UNK        -0.1926 
     64 N         -82.4855   26.3948  -74.7068 N.am      2 UNK        -0.4687 
     65 C         -81.5586   27.1702  -75.2851 C.2       1 UNK         0.5165 
     66 O         -81.1356   26.9782  -76.4275 O.2       1 UNK        -0.5079 
     67 H67       -81.6120   31.3205  -77.7231 H         1 UNK         0.0900 
     68 H68       -80.1554   31.5146  -76.7462 H         1 UNK         0.0900 
     69 H69       -81.6299   32.3806  -76.3112 H         1 UNK         0.0900 
     70 H70       -79.7865   29.7297  -75.4768 H         1 UNK         0.2959 
     71 H71       -79.9752   27.9940  -74.1767 H         1 UNK         0.1079 
     72 H72       -82.8066   28.6889  -73.2745 H         1 UNK         0.0837 
     73 H73       -81.4558   29.6379  -72.7646 H         1 UNK         0.0837 
     74 H74       -80.0868   27.8929  -69.8005 H         1 UNK         0.0685 
     75 H75       -80.4607   29.3768  -70.6314 H         1 UNK         0.0685 
     76 H76       -78.1387   26.5274  -70.4091 H         1 UNK         0.1434 
     77 H77       -75.2247   28.2267  -73.0349 H         1 UNK         0.1329 
     78 H78       -79.0532   30.1135  -72.5707 H         1 UNK         0.1335 
     79 H79       -77.4099   30.2491  -74.8170 H         1 UNK         0.0680 
     80 H80       -77.0356   31.3682  -73.5311 H         1 UNK         0.0680 
     81 H81       -74.6325   32.1652  -72.9123 H         1 UNK         0.1032 
     82 H82       -74.4846   30.5876  -72.1926 H         1 UNK         0.1032 
     83 H83       -72.4744   31.8833  -74.0978 H         1 UNK         0.0461 
     84 H84       -70.3093   30.8885  -72.0520 H         1 UNK         0.3453 
     85 H85       -70.3631   32.1692  -70.8656 H         1 UNK         0.3453 
     86 H86       -71.4253   29.9606  -74.3746 H         1 UNK         0.2984 
     87 H87       -70.1406   28.0060  -73.1685 H         1 UNK         0.0554 
     88 H88       -70.6907   25.6098  -72.8015 H         1 UNK         0.0847 
     89 H89       -72.3781   26.0390  -72.5298 H         1 UNK         0.0847 
     90 H90       -71.1376   26.5922  -71.4166 H         1 UNK         0.0847 
     91 H91       -71.9919   26.5670  -74.9041 H         1 UNK         0.3141 
     92 H92       -70.6487   28.1558  -77.8411 H         1 UNK         0.0743 
     93 H93       -68.7310   26.7337  -77.0547 H         1 UNK         0.0784 
     94 H94       -69.8527   25.4319  -76.6781 H         1 UNK         0.0784 
     95 H95       -69.6306   25.9587  -78.3457 H         1 UNK         0.0784 
     96 H96       -72.7096   26.4177  -76.7015 H         1 UNK         0.3213 
     97 H97       -74.4384   26.4506  -79.7632 H         1 UNK         0.0855 
     98 H98       -73.1260   24.3900  -80.2901 H         1 UNK         0.0814 
     99 H99       -74.6989   23.9767  -79.6270 H         1 UNK         0.0814 
    100 H100      -73.2580   23.8587  -78.6187 H         1 UNK         0.0814 
    101 H101      -74.9538   25.0681  -77.2985 H         1 UNK         0.3105 
    102 H102      -75.5803   27.6827  -75.2428 H         1 UNK         0.0547 
    103 H103      -78.0311   26.5074  -76.6573 H         1 UNK         0.0837 
    104 H104      -78.0097   27.1695  -75.0247 H         1 UNK         0.0837 
    105 H105      -77.7045   28.2167  -76.4038 H         1 UNK         0.0837 
    106 H106      -76.6882   25.0893  -75.0622 H         1 UNK         0.3020 
    107 H107      -73.8034   23.2100  -74.4693 H         1 UNK         0.1245 
    108 H108      -73.7896   24.3083  -72.2499 H         1 UNK         0.0781 
    109 H109      -74.5855   22.7776  -72.1949 H         1 UNK         0.0781 
    110 H110      -74.6177   26.3806  -71.7581 H         1 UNK         0.0836 
    111 H111      -75.4438   26.1554  -70.2400 H         1 UNK         0.0836 
    112 H112      -76.5270   22.6528  -73.9195 H         1 UNK         0.3022 
    113 H113      -77.7468   22.1490  -77.1254 H         1 UNK         0.0747 
    114 H114      -77.9802   19.7239  -76.6559 H         1 UNK         0.0793 
    115 H115      -76.3236   20.0896  -77.1032 H         1 UNK         0.0793 
    116 H116      -76.7286   19.8143  -75.4148 H         1 UNK         0.0793 
    117 H117      -78.7615   21.1117  -74.7222 H         1 UNK         0.3047 
    118 H118      -80.5881   22.0709  -73.8386 H         1 UNK         0.0822 
    119 H119      -78.7918   22.6260  -72.1584 H         1 UNK         0.0807 
    120 H120      -80.3576   23.2416  -71.6577 H         1 UNK         0.0807 
    121 H121      -79.1572   24.3377  -72.3373 H         1 UNK         0.0807 
    122 H122      -81.1550   24.8973  -73.5631 H         1 UNK         0.2946 
    123 H123      -83.1582   25.3091  -76.3667 H         1 UNK         0.1144 
    124 H124      -84.8237   23.9563  -75.0950 H         1 UNK         0.0793 
    125 H125      -85.0919   25.6714  -74.8333 H         1 UNK         0.0793 
    126 H126      -84.3108   24.6985  -73.5859 H         1 UNK         0.0793 
    127 H127      -82.7740   26.6171  -73.7633 H         1 UNK         0.2896 
@<TRIPOS>BOND
     1    1    2 1    
     2    1   67 1    
     3    1   68 1    
     4    1   69 1    
     5    2    3 2    
     6    2    4 am   BACKBONE|DICT|INTERRES
     7    4    5 1    
     8    4   70 1    
     9    5    6 1    
    10    5   65 1    
    11    5   71 1    
    12    6    7 1    
    13    6   72 1    
    14    6   73 1    
    15    7    8 1    
    16    8    9 1    
    17    8   74 1    
    18    8   75 1    
    19    9   10 ar   
    20    9   14 ar   
    21   10   11 ar   
    22   10   76 1    
    23   11   12 ar   
    24   11   48 1    
    25   12   13 ar   
    26   12   77 1    
    27   13   14 ar   
    28   13   15 1    
    29   14   78 1    
    30   15   16 1    
    31   15   79 1    
    32   15   80 1    
    33   16   17 1    
    34   17   18 1    
    35   17   81 1    
    36   17   82 1    
    37   18   19 1    
    38   18   22 1    
    39   18   83 1    
    40   19   20 am   BACKBONE|DICT|INTERRES
    41   19   21 2    
    42   20   84 1    
    43   20   85 1    
    44   22   23 am   BACKBONE|DICT|INTERRES
    45   22   86 1    
    46   23   24 2    
    47   23   25 1    
    48   25   26 1    
    49   25   27 1    
    50   25   87 1    
    51   26   88 1    
    52   26   89 1    
    53   26   90 1    
    54   27   28 am   BACKBONE|DICT|INTERRES
    55   27   91 1    
    56   28   29 2    
    57   28   30 1    
    58   30   31 1    
    59   30   32 1    
    60   30   92 1    
    61   31   93 1    
    62   31   94 1    
    63   31   95 1    
    64   32   33 am   BACKBONE|DICT|INTERRES
    65   32   96 1    
    66   33   34 2    
    67   33   35 1    
    68   35   36 1    
    69   35   37 1    
    70   35   97 1    
    71   36   98 1    
    72   36   99 1    
    73   36  100 1    
    74   37   38 am   BACKBONE|DICT|INTERRES
    75   37  101 1    
    76   38   39 2    
    77   38   40 1    
    78   40   41 1    
    79   40   42 1    
    80   40  102 1    
    81   41  103 1    
    82   41  104 1    
    83   41  105 1    
    84   42   43 am   BACKBONE|DICT|INTERRES
    85   42  106 1    
    86   43   44 2    
    87   43   45 1    
    88   45   46 1    
    89   45   49 1    
    90   45  107 1    
    91   46   47 1    
    92   46  108 1    
    93   46  109 1    
    94   47   48 1    
    95   48  110 1    
    96   48  111 1    
    97   49   50 am   BACKBONE|DICT|INTERRES
    98   49  112 1    
    99   50   51 2    
   100   50   52 1    
   101   52   53 1    
   102   52   54 1    
   103   52  113 1    
   104   53  114 1    
   105   53  115 1    
   106   53  116 1    
   107   54   55 am   BACKBONE|DICT|INTERRES
   108   54  117 1    
   109   55   56 2    
   110   55   57 1    
   111   57   58 1    
   112   57   59 1    
   113   57  118 1    
   114   58  119 1    
   115   58  120 1    
   116   58  121 1    
   117   59   60 am   BACKBONE|DICT|INTERRES
   118   59  122 1    
   119   60   61 2    
   120   60   62 1    
   121   62   63 1    
   122   62   64 1    
   123   62  123 1    
   124   63  124 1    
   125   63  125 1    
   126   63  126 1    
   127   64   65 am   BACKBONE|DICT|INTERRES
   128   64  127 1    
   129   65   66 2    
@<TRIPOS>SUBSTRUCTURE
     1 UNK         1 GROUP             0       ****    0 ROOT    
