@<TRIPOS>MOLECULE
3R135
127   129    1
SMALL
USER_CHARGES


@<TRIPOS>ATOM
      1 CA        -81.3724   28.5635  -79.2808 C.3       0 UNK        -0.1998 
      2 C         -81.1704   27.9572  -77.9008 C.2       0 UNK         0.4909 
      3 O         -80.9300   26.7529  -77.7894 O.2       0 UNK        -0.5240 
      4 N         -81.2607   28.7797  -76.8446 N.am      1 UNK        -0.4739 
      5 CA        -81.1339   28.3455  -75.4501 C.3       1 UNK         0.0864 
      6 C6        -81.0156   29.5341  -74.4666 C.3       11 UNK        -0.0881 
      7 S7        -80.0696   29.0701  -72.9772 S.3       11 UNK        -0.2682 
      8 C8        -78.3863   29.4997  -73.5149 C.3       11 UNK         0.0289 
      9 C9        -77.3549   29.1552  -72.4527 C.ar      11 UNK        -0.0687 
     10 C10       -76.6439   27.9536  -72.5175 C.ar      11 UNK        -0.0823 
     11 C11       -75.6560   27.6588  -71.5713 C.ar      11 UNK        -0.0830 
     12 C12       -75.4017   28.5659  -70.5381 C.ar      11 UNK        -0.1021 
     13 C13       -76.1105   29.7688  -70.4618 C.ar      11 UNK        -0.0753 
     14 C14       -77.0845   30.0577  -71.4215 C.ar      11 UNK        -0.0933 
     15 C15       -75.8262   30.7665  -69.3504 C.3       11 UNK         0.0166 
     16 S16       -74.7565   32.1244  -69.9230 S.3       11 UNK        -0.2615 
     17 C17       -73.1081   31.3385  -69.9350 C.3       11 UNK        -0.0865 
     18 CA        -72.4534   31.3081  -71.3424 C.3       10 UNK         0.0862 
     19 C         -70.9596   30.8686  -71.2444 C.2       10 UNK         0.5551 
     20 N         -70.5219   29.7905  -71.8849 N.am      10 UNK        -0.7319 
     21 O         -70.1746   31.5297  -70.5688 O.2       10 UNK        -0.5018 
     22 N         -73.2604   30.5438  -72.3079 N.am      10 UNK        -0.4509 
     23 C         -73.1263   30.6173  -73.6364 C.2       10 UNK         0.4899 
     24 O         -72.3948   31.4214  -74.2181 O.2       10 UNK        -0.4839 
     25 CA        -73.9383   29.6022  -74.4577 C.3       9 UNK         0.0222 
     26 CB        -75.0961   30.2996  -75.1898 C.3       9 UNK        -0.1966 
     27 N         -73.1055   28.8754  -75.4210 N.am      9 UNK        -0.4218 
     28 C         -72.0241   28.1432  -75.1092 C.2       9 UNK         0.5020 
     29 O         -71.6264   27.9678  -73.9546 O.2       9 UNK        -0.5274 
     30 CA        -71.2970   27.4734  -76.2867 C.3       8 UNK         0.0270 
     31 CB        -70.1034   26.6038  -75.8479 C.3       8 UNK        -0.1976 
     32 N         -72.2581   26.6487  -77.0111 N.am      8 UNK        -0.4313 
     33 C         -72.4132   26.5989  -78.3404 C.2       8 UNK         0.5041 
     34 O         -71.6766   27.1820  -79.1369 O.2       8 UNK        -0.5577 
     35 CA        -73.6060   25.7806  -78.8823 C.3       7 UNK         0.0284 
     36 CB        -73.1424   24.3827  -79.3226 C.3       7 UNK        -0.1958 
     37 N         -74.7057   25.6404  -77.9213 N.am      7 UNK        -0.4454 
     38 C         -75.4097   26.6598  -77.4098 C.2       7 UNK         0.5089 
     39 O         -75.3187   27.8184  -77.8159 O.2       7 UNK        -0.5125 
     40 CA        -76.3240   26.3651  -76.2053 C.3       6 UNK         0.0408 
     41 CB        -77.7974   26.4205  -76.6289 C.3       6 UNK        -0.1791 
     42 N         -76.0706   25.1095  -75.4793 N.am      6 UNK        -0.4762 
     43 C         -74.9049   24.7365  -74.9210 C.2       6 UNK         0.5007 
     44 O         -73.8607   25.3731  -75.0546 O.2       6 UNK        -0.5032 
     45 CA        -74.8755   23.4519  -74.0621 C.3       5 UNK         0.0783 
     46 C46       -74.5866   23.7531  -72.5670 C.3       11 UNK        -0.0857 
     47 S47       -75.7937   24.8726  -71.7675 S.3       11 UNK        -0.2512 
     48 C48       -74.8056   26.4046  -71.7147 C.3       11 UNK         0.0225 
     49 N         -76.0614   22.6085  -74.2211 N.am      5 UNK        -0.4615 
     50 C         -76.3407   21.8668  -75.3005 C.2       4 UNK         0.5053 
     51 O         -75.6285   21.8275  -76.3044 O.2       4 UNK        -0.5105 
     52 CA        -77.6372   21.0347  -75.2653 C.3       4 UNK         0.0263 
     53 CB        -78.1540   20.7468  -73.8366 C.3       4 UNK        -0.1981 
     54 N         -78.7026   21.6293  -76.0809 N.am      4 UNK        -0.4224 
     55 C         -79.2057   22.8680  -75.9713 C.2       3 UNK         0.4895 
     56 O         -78.7745   23.7136  -75.1826 O.2       3 UNK        -0.5091 
     57 CA        -80.3793   23.2445  -76.9007 C.3       3 UNK         0.0250 
     58 CB        -81.0995   22.0385  -77.5473 C.3       3 UNK        -0.1996 
     59 N         -81.3304   24.1247  -76.2121 N.am      3 UNK        -0.4254 
     60 C         -82.0415   23.8404  -75.1053 C.2       2 UNK         0.5004 
     61 O         -82.1223   22.7155  -74.6085 O.2       2 UNK        -0.5226 
     62 CA        -82.7384   25.0275  -74.4148 C.3       2 UNK         0.0269 
     63 CB        -83.0271   24.7688  -72.9238 C.3       2 UNK        -0.1926 
     64 N         -81.8895   26.2109  -74.5422 N.am      2 UNK        -0.4687 
     65 C         -82.2711   27.3735  -75.0767 C.2       1 UNK         0.5165 
     66 O         -83.4418   27.6718  -75.3264 O.2       1 UNK        -0.5079 
     67 H67       -81.5747   29.6331  -79.2309 H         1 UNK         0.0900 
     68 H68       -82.2116   28.0818  -79.7816 H         1 UNK         0.0900 
     69 H69       -80.4808   28.4141  -79.8889 H         1 UNK         0.0900 
     70 H70       -81.4942   29.7517  -76.9888 H         1 UNK         0.2959 
     71 H71       -80.1950   27.7917  -75.4121 H         1 UNK         0.1079 
     72 H72       -81.9971   29.9104  -74.1708 H         1 UNK         0.0837 
     73 H73       -80.5100   30.3765  -74.9416 H         1 UNK         0.0837 
     74 H74       -78.3390   30.5661  -73.7413 H         1 UNK         0.0685 
     75 H75       -78.1559   28.9773  -74.4448 H         1 UNK         0.0685 
     76 H76       -76.8434   27.2526  -73.3153 H         1 UNK         0.1434 
     77 H77       -74.6395   28.3454  -69.8030 H         1 UNK         0.1329 
     78 H78       -77.6279   30.9915  -71.3696 H         1 UNK         0.1335 
     79 H79       -75.3746   30.2744  -68.4875 H         1 UNK         0.0680 
     80 H80       -76.7678   31.1897  -68.9971 H         1 UNK         0.0680 
     81 H81       -72.4868   31.9067  -69.2398 H         1 UNK         0.1032 
     82 H82       -73.1648   30.3310  -69.5206 H         1 UNK         0.1032 
     83 H83       -72.4250   32.3384  -71.7026 H         1 UNK         0.0461 
     84 H84       -71.1298   29.2406  -72.4828 H         1 UNK         0.3453 
     85 H85       -69.5512   29.5357  -71.8004 H         1 UNK         0.3453 
     86 H86       -73.9086   29.8768  -71.9139 H         1 UNK         0.2984 
     87 H87       -74.3576   28.8584  -73.7812 H         1 UNK         0.0554 
     88 H88       -75.7366   29.5836  -75.7033 H         1 UNK         0.0847 
     89 H89       -74.7326   31.0152  -75.9284 H         1 UNK         0.0847 
     90 H90       -75.7246   30.8489  -74.4876 H         1 UNK         0.0847 
     91 H91       -73.3677   28.9534  -76.3939 H         1 UNK         0.3141 
     92 H92       -70.9255   28.2758  -76.9275 H         1 UNK         0.0743 
     93 H93       -70.4195   25.7904  -75.1934 H         1 UNK         0.0784 
     94 H94       -69.5969   26.1651  -76.7076 H         1 UNK         0.0784 
     95 H95       -69.3669   27.1965  -75.3039 H         1 UNK         0.0784 
     96 H96       -72.9170   26.1451  -76.4162 H         1 UNK         0.3213 
     97 H97       -73.9931   26.3084  -79.7565 H         1 UNK         0.0855 
     98 H98       -72.7631   23.7999  -78.4822 H         1 UNK         0.0814 
     99 H99       -72.3407   24.4522  -80.0592 H         1 UNK         0.0814 
    100 H100      -73.9551   23.8206  -79.7830 H         1 UNK         0.0814 
    101 H101      -74.8505   24.7243  -77.5211 H         1 UNK         0.3105 
    102 H102      -76.1501   27.1730  -75.4941 H         1 UNK         0.0547 
    103 H103      -78.0376   27.3748  -77.0999 H         1 UNK         0.0837 
    104 H104      -78.0416   25.6342  -77.3437 H         1 UNK         0.0837 
    105 H105      -78.4575   26.3077  -75.7706 H         1 UNK         0.0837 
    106 H106      -76.8833   24.5240  -75.3082 H         1 UNK         0.3020 
    107 H107      -74.0270   22.8741  -74.4369 H         1 UNK         0.1245 
    108 H108      -73.5813   24.1651  -72.4591 H         1 UNK         0.0781 
    109 H109      -74.5704   22.8198  -72.0019 H         1 UNK         0.0781 
    110 H110      -74.2186   26.5041  -72.6285 H         1 UNK         0.0836 
    111 H111      -74.0850   26.3249  -70.8993 H         1 UNK         0.0836 
    112 H112      -76.7288   22.6310  -73.4633 H         1 UNK         0.3022 
    113 H113      -77.3930   20.0750  -75.7236 H         1 UNK         0.0747 
    114 H114      -78.9865   20.0435  -73.8602 H         1 UNK         0.0793 
    115 H115      -77.3758   20.2978  -73.2176 H         1 UNK         0.0793 
    116 H116      -78.5053   21.6468  -73.3304 H         1 UNK         0.0793 
    117 H117      -79.1002   21.0231  -76.7844 H         1 UNK         0.3047 
    118 H118      -79.9478   23.8428  -77.7046 H         1 UNK         0.0822 
    119 H119      -81.9539   22.3663  -78.1396 H         1 UNK         0.0807 
    120 H120      -81.4676   21.3314  -76.8029 H         1 UNK         0.0807 
    121 H121      -80.4385   21.4960  -78.2241 H         1 UNK         0.0807 
    122 H122      -81.3274   25.0839  -76.5441 H         1 UNK         0.2946 
    123 H123      -83.6889   25.1742  -74.9333 H         1 UNK         0.1144 
    124 H124      -83.5083   25.6298  -72.4595 H         1 UNK         0.0793 
    125 H125      -82.1129   24.5554  -72.3685 H         1 UNK         0.0793 
    126 H126      -83.6962   23.9170  -72.7952 H         1 UNK         0.0793 
    127 H127      -80.9068   26.0555  -74.3604 H         1 UNK         0.2896 
@<TRIPOS>BOND
     1    1    2 1    
     2    1   67 1    
     3    1   68 1    
     4    1   69 1    
     5    2    3 2    
     6    2    4 am   BACKBONE|DICT|INTERRES
     7    4    5 1    
     8    4   70 1    
     9    5    6 1    
    10    5   65 1    
    11    5   71 1    
    12    6    7 1    
    13    6   72 1    
    14    6   73 1    
    15    7    8 1    
    16    8    9 1    
    17    8   74 1    
    18    8   75 1    
    19    9   10 ar   
    20    9   14 ar   
    21   10   11 ar   
    22   10   76 1    
    23   11   12 ar   
    24   11   48 1    
    25   12   13 ar   
    26   12   77 1    
    27   13   14 ar   
    28   13   15 1    
    29   14   78 1    
    30   15   16 1    
    31   15   79 1    
    32   15   80 1    
    33   16   17 1    
    34   17   18 1    
    35   17   81 1    
    36   17   82 1    
    37   18   19 1    
    38   18   22 1    
    39   18   83 1    
    40   19   20 am   BACKBONE|DICT|INTERRES
    41   19   21 2    
    42   20   84 1    
    43   20   85 1    
    44   22   23 am   BACKBONE|DICT|INTERRES
    45   22   86 1    
    46   23   24 2    
    47   23   25 1    
    48   25   26 1    
    49   25   27 1    
    50   25   87 1    
    51   26   88 1    
    52   26   89 1    
    53   26   90 1    
    54   27   28 am   BACKBONE|DICT|INTERRES
    55   27   91 1    
    56   28   29 2    
    57   28   30 1    
    58   30   31 1    
    59   30   32 1    
    60   30   92 1    
    61   31   93 1    
    62   31   94 1    
    63   31   95 1    
    64   32   33 am   BACKBONE|DICT|INTERRES
    65   32   96 1    
    66   33   34 2    
    67   33   35 1    
    68   35   36 1    
    69   35   37 1    
    70   35   97 1    
    71   36   98 1    
    72   36   99 1    
    73   36  100 1    
    74   37   38 am   BACKBONE|DICT|INTERRES
    75   37  101 1    
    76   38   39 2    
    77   38   40 1    
    78   40   41 1    
    79   40   42 1    
    80   40  102 1    
    81   41  103 1    
    82   41  104 1    
    83   41  105 1    
    84   42   43 am   BACKBONE|DICT|INTERRES
    85   42  106 1    
    86   43   44 2    
    87   43   45 1    
    88   45   46 1    
    89   45   49 1    
    90   45  107 1    
    91   46   47 1    
    92   46  108 1    
    93   46  109 1    
    94   47   48 1    
    95   48  110 1    
    96   48  111 1    
    97   49   50 am   BACKBONE|DICT|INTERRES
    98   49  112 1    
    99   50   51 2    
   100   50   52 1    
   101   52   53 1    
   102   52   54 1    
   103   52  113 1    
   104   53  114 1    
   105   53  115 1    
   106   53  116 1    
   107   54   55 am   BACKBONE|DICT|INTERRES
   108   54  117 1    
   109   55   56 2    
   110   55   57 1    
   111   57   58 1    
   112   57   59 1    
   113   57  118 1    
   114   58  119 1    
   115   58  120 1    
   116   58  121 1    
   117   59   60 am   BACKBONE|DICT|INTERRES
   118   59  122 1    
   119   60   61 2    
   120   60   62 1    
   121   62   63 1    
   122   62   64 1    
   123   62  123 1    
   124   63  124 1    
   125   63  125 1    
   126   63  126 1    
   127   64   65 am   BACKBONE|DICT|INTERRES
   128   64  127 1    
   129   65   66 2    
@<TRIPOS>SUBSTRUCTURE
     1 UNK         1 GROUP             0       ****    0 ROOT    
