@<TRIPOS>MOLECULE
3R135
127   129    1
SMALL
USER_CHARGES


@<TRIPOS>ATOM
      1 CA        -78.1657   25.7247  -67.6383 C.3       0 UNK        -0.1998 
      2 C         -78.3007   25.6081  -69.1495 C.2       0 UNK         0.4909 
      3 O         -77.3300   25.8565  -69.8635 O.2       0 UNK        -0.5240 
      4 N         -79.4983   25.2385  -69.6262 N.am      1 UNK        -0.4739 
      5 CA        -79.8703   25.0432  -71.0368 C.3       1 UNK         0.0864 
      6 C6        -79.7287   26.3323  -71.9009 C.3       11 UNK        -0.0881 
      7 S7        -80.8227   27.6693  -71.3245 S.3       11 UNK        -0.2682 
      8 C8        -80.6670   28.8493  -72.7112 C.3       11 UNK         0.0289 
      9 C9        -79.3650   29.6540  -72.7747 C.ar      11 UNK        -0.0687 
     10 C10       -79.1498   30.4679  -73.8929 C.ar      11 UNK        -0.0823 
     11 C11       -78.0149   31.2789  -73.9800 C.ar      11 UNK        -0.0830 
     12 C12       -77.0927   31.2838  -72.9328 C.ar      11 UNK        -0.1021 
     13 C13       -77.2612   30.4424  -71.8327 C.ar      11 UNK        -0.0753 
     14 C14       -78.4012   29.6368  -71.7548 C.ar      11 UNK        -0.0933 
     15 C15       -76.2193   30.4112  -70.7233 C.3       11 UNK         0.0166 
     16 S16       -74.7157   29.5106  -71.2277 S.3       11 UNK        -0.2615 
     17 C17       -73.7178   30.8177  -72.0301 C.3       11 UNK        -0.0865 
     18 CA        -73.6136   30.6705  -73.5783 C.3       10 UNK         0.0862 
     19 C         -72.9470   31.9048  -74.2579 C.2       10 UNK         0.5551 
     20 N         -72.2024   31.7397  -75.3447 N.am      10 UNK        -0.7319 
     21 O         -73.1291   33.0356  -73.8133 O.2       10 UNK        -0.5018 
     22 N         -73.0823   29.3706  -74.0149 N.am      10 UNK        -0.4509 
     23 C         -71.8776   28.8551  -73.7365 C.2       10 UNK         0.4899 
     24 O         -71.0217   29.4237  -73.0568 O.2       10 UNK        -0.4839 
     25 CA        -71.5823   27.4723  -74.3483 C.3       9 UNK         0.0222 
     26 CB        -70.3868   26.7514  -73.6898 C.3       9 UNK        -0.1966 
     27 N         -72.7745   26.6187  -74.3884 N.am      9 UNK        -0.4218 
     28 C         -73.4682   26.1157  -73.3541 C.2       9 UNK         0.5020 
     29 O         -73.1218   26.2124  -72.1765 O.2       9 UNK        -0.5274 
     30 CA        -74.7829   25.3809  -73.6860 C.3       8 UNK         0.0270 
     31 CB        -75.9941   26.2486  -73.3001 C.3       8 UNK        -0.1976 
     32 N         -74.8991   25.0061  -75.0982 N.am      8 UNK        -0.4313 
     33 C         -74.1850   24.0459  -75.7026 C.2       8 UNK         0.5041 
     34 O         -73.4035   23.2973  -75.1158 O.2       8 UNK        -0.5577 
     35 CA        -74.3391   23.9328  -77.2284 C.3       7 UNK         0.0284 
     36 CB        -75.5116   23.0081  -77.5952 C.3       7 UNK        -0.1958 
     37 N         -74.5133   25.2429  -77.8661 N.am      7 UNK        -0.4454 
     38 C         -73.5396   26.1570  -77.9927 C.2       7 UNK         0.5089 
     39 O         -72.3831   25.9816  -77.6116 O.2       7 UNK        -0.5125 
     40 CA        -73.9251   27.5091  -78.6185 C.3       6 UNK         0.0408 
     41 CB        -73.8428   27.4357  -80.1512 C.3       6 UNK        -0.1791 
     42 N         -75.2573   27.9713  -78.2213 N.am      6 UNK        -0.4762 
     43 C         -75.6006   28.3326  -76.9749 C.2       6 UNK         0.5007 
     44 O         -74.8183   28.3222  -76.0237 O.2       6 UNK        -0.5032 
     45 CA        -77.0870   28.6968  -76.7485 C.3       5 UNK         0.0783 
     46 C46       -77.4087   30.1532  -77.1760 C.3       11 UNK        -0.0857 
     47 S47       -76.4906   31.4521  -76.2788 S.3       11 UNK        -0.2512 
     48 C48       -77.7734   32.1591  -75.1956 C.3       11 UNK         0.0225 
     49 N         -77.9864   27.7622  -77.4421 N.am      5 UNK        -0.4615 
     50 C         -78.0093   26.4321  -77.2913 C.2       4 UNK         0.5053 
     51 O         -77.3068   25.8149  -76.4858 O.2       4 UNK        -0.5105 
     52 CA        -78.9073   25.6589  -78.2642 C.3       4 UNK         0.0263 
     53 CB        -78.2948   25.6621  -79.6806 C.3       4 UNK        -0.1981 
     54 N         -79.0429   24.2902  -77.7787 N.am      4 UNK        -0.4224 
     55 C         -79.9291   23.3767  -78.1935 C.2       3 UNK         0.4895 
     56 O         -80.7681   23.5855  -79.0707 O.2       3 UNK        -0.5091 
     57 CA        -79.8752   21.9866  -77.5255 C.3       3 UNK         0.0250 
     58 CB        -79.1292   20.9919  -78.4305 C.3       3 UNK        -0.1996 
     59 N         -79.2546   21.9780  -76.1947 N.am      3 UNK        -0.4254 
     60 C         -79.7528   22.6008  -75.1181 C.2       2 UNK         0.5004 
     61 O         -80.8204   23.2212  -75.1264 O.2       2 UNK        -0.5226 
     62 CA        -78.9108   22.5606  -73.8317 C.3       2 UNK         0.0269 
     63 CB        -77.3995   22.7132  -74.1055 C.3       2 UNK        -0.1926 
     64 N         -79.3853   23.6476  -72.9825 N.am      2 UNK        -0.4687 
     65 C         -79.1769   23.8136  -71.6736 C.2       1 UNK         0.5165 
     66 O         -78.5253   23.0219  -70.9867 O.2       1 UNK        -0.5079 
     67 H67       -77.4020   25.0367  -67.2766 H         1 UNK         0.0900 
     68 H68       -77.8690   26.7372  -67.3662 H         1 UNK         0.0900 
     69 H69       -79.0994   25.4957  -67.1250 H         1 UNK         0.0900 
     70 H70       -80.2357   25.0328  -68.9669 H         1 UNK         0.2959 
     71 H71       -80.9294   24.7798  -71.0198 H         1 UNK         0.1079 
     72 H72       -78.6984   26.6895  -71.9115 H         1 UNK         0.0837 
     73 H73       -79.9902   26.1459  -72.9431 H         1 UNK         0.0837 
     74 H74       -80.8094   28.3128  -73.6506 H         1 UNK         0.0685 
     75 H75       -81.4944   29.5562  -72.6365 H         1 UNK         0.0685 
     76 H76       -79.8776   30.4805  -74.6930 H         1 UNK         0.1434 
     77 H77       -76.2290   31.9303  -72.9884 H         1 UNK         0.1329 
     78 H78       -78.5308   29.0083  -70.8858 H         1 UNK         0.1335 
     79 H79       -76.6287   29.9174  -69.8407 H         1 UNK         0.0680 
     80 H80       -75.9723   31.4260  -70.4092 H         1 UNK         0.0680 
     81 H81       -74.1363   31.7897  -71.7663 H         1 UNK         0.1032 
     82 H82       -72.7229   30.8059  -71.5831 H         1 UNK         0.1032 
     83 H83       -74.6276   30.6719  -73.9722 H         1 UNK         0.0461 
     84 H84       -71.7835   32.5433  -75.7853 H         1 UNK         0.3453 
     85 H85       -72.0622   30.8193  -75.7281 H         1 UNK         0.3453 
     86 H86       -73.7012   28.8480  -74.6308 H         1 UNK         0.2984 
     87 H87       -71.3166   27.6559  -75.3903 H         1 UNK         0.0554 
     88 H88       -69.4702   27.3305  -73.8077 H         1 UNK         0.0847 
     89 H89       -70.2135   25.7754  -74.1430 H         1 UNK         0.0847 
     90 H90       -70.5391   26.6038  -72.6203 H         1 UNK         0.0847 
     91 H91       -73.1687   26.4797  -75.3091 H         1 UNK         0.3141 
     92 H92       -74.8095   24.4681  -73.0874 H         1 UNK         0.0743 
     93 H93       -76.9344   25.7308  -73.4876 H         1 UNK         0.0784 
     94 H94       -75.9701   26.5003  -72.2387 H         1 UNK         0.0784 
     95 H95       -76.0126   27.1887  -73.8518 H         1 UNK         0.0784 
     96 H96       -75.5840   25.5177  -75.6486 H         1 UNK         0.3213 
     97 H97       -73.4225   23.4861  -77.6207 H         1 UNK         0.0855 
     98 H98       -76.4563   23.3741  -77.1983 H         1 UNK         0.0814 
     99 H99       -75.3565   22.0080  -77.1882 H         1 UNK         0.0814 
    100 H100      -75.6163   22.9049  -78.6753 H         1 UNK         0.0814 
    101 H101      -75.4452   25.4889  -78.1635 H         1 UNK         0.3105 
    102 H102      -73.1997   28.2501  -78.2754 H         1 UNK         0.0547 
    103 H103      -74.0266   28.4093  -80.6058 H         1 UNK         0.0837 
    104 H104      -72.8514   27.1133  -80.4728 H         1 UNK         0.0837 
    105 H105      -74.5642   26.7296  -80.5643 H         1 UNK         0.0837 
    106 H106      -75.9622   28.0090  -78.9430 H         1 UNK         0.3020 
    107 H107      -77.2801   28.6012  -75.6773 H         1 UNK         0.1245 
    108 H108      -78.4769   30.3400  -77.0563 H         1 UNK         0.0781 
    109 H109      -77.2090   30.2868  -78.2408 H         1 UNK         0.0781 
    110 H110      -78.6945   32.3218  -75.7573 H         1 UNK         0.0836 
    111 H111      -77.4454   33.1455  -74.8643 H         1 UNK         0.0836 
    112 H112      -78.6013   28.1739  -78.1292 H         1 UNK         0.3022 
    113 H113      -79.8924   26.1295  -78.2790 H         1 UNK         0.0747 
    114 H114      -77.3212   25.1710  -79.7002 H         1 UNK         0.0793 
    115 H115      -78.9375   25.1474  -80.3947 H         1 UNK         0.0793 
    116 H116      -78.1589   26.6770  -80.0560 H         1 UNK         0.0793 
    117 H117      -78.4200   24.0688  -77.0131 H         1 UNK         0.3047 
    118 H118      -80.9058   21.6427  -77.4144 H         1 UNK         0.0822 
    119 H119      -79.5843   20.9483  -79.4212 H         1 UNK         0.0807 
    120 H120      -79.1568   19.9822  -78.0203 H         1 UNK         0.0807 
    121 H121      -78.0839   21.2731  -78.5653 H         1 UNK         0.0807 
    122 H122      -78.3824   21.4771  -76.1060 H         1 UNK         0.2946 
    123 H123      -79.1020   21.6091  -73.3309 H         1 UNK         0.1144 
    124 H124      -76.8289   22.8067  -73.1816 H         1 UNK         0.0793 
    125 H125      -77.1990   23.5977  -74.7085 H         1 UNK         0.0793 
    126 H126      -76.9953   21.8505  -74.6354 H         1 UNK         0.0793 
    127 H127      -80.0207   24.2704  -73.4669 H         1 UNK         0.2896 
@<TRIPOS>BOND
     1    1    2 1    
     2    1   67 1    
     3    1   68 1    
     4    1   69 1    
     5    2    3 2    
     6    2    4 am   BACKBONE|DICT|INTERRES
     7    4    5 1    
     8    4   70 1    
     9    5    6 1    
    10    5   65 1    
    11    5   71 1    
    12    6    7 1    
    13    6   72 1    
    14    6   73 1    
    15    7    8 1    
    16    8    9 1    
    17    8   74 1    
    18    8   75 1    
    19    9   10 ar   
    20    9   14 ar   
    21   10   11 ar   
    22   10   76 1    
    23   11   12 ar   
    24   11   48 1    
    25   12   13 ar   
    26   12   77 1    
    27   13   14 ar   
    28   13   15 1    
    29   14   78 1    
    30   15   16 1    
    31   15   79 1    
    32   15   80 1    
    33   16   17 1    
    34   17   18 1    
    35   17   81 1    
    36   17   82 1    
    37   18   19 1    
    38   18   22 1    
    39   18   83 1    
    40   19   20 am   BACKBONE|DICT|INTERRES
    41   19   21 2    
    42   20   84 1    
    43   20   85 1    
    44   22   23 am   BACKBONE|DICT|INTERRES
    45   22   86 1    
    46   23   24 2    
    47   23   25 1    
    48   25   26 1    
    49   25   27 1    
    50   25   87 1    
    51   26   88 1    
    52   26   89 1    
    53   26   90 1    
    54   27   28 am   BACKBONE|DICT|INTERRES
    55   27   91 1    
    56   28   29 2    
    57   28   30 1    
    58   30   31 1    
    59   30   32 1    
    60   30   92 1    
    61   31   93 1    
    62   31   94 1    
    63   31   95 1    
    64   32   33 am   BACKBONE|DICT|INTERRES
    65   32   96 1    
    66   33   34 2    
    67   33   35 1    
    68   35   36 1    
    69   35   37 1    
    70   35   97 1    
    71   36   98 1    
    72   36   99 1    
    73   36  100 1    
    74   37   38 am   BACKBONE|DICT|INTERRES
    75   37  101 1    
    76   38   39 2    
    77   38   40 1    
    78   40   41 1    
    79   40   42 1    
    80   40  102 1    
    81   41  103 1    
    82   41  104 1    
    83   41  105 1    
    84   42   43 am   BACKBONE|DICT|INTERRES
    85   42  106 1    
    86   43   44 2    
    87   43   45 1    
    88   45   46 1    
    89   45   49 1    
    90   45  107 1    
    91   46   47 1    
    92   46  108 1    
    93   46  109 1    
    94   47   48 1    
    95   48  110 1    
    96   48  111 1    
    97   49   50 am   BACKBONE|DICT|INTERRES
    98   49  112 1    
    99   50   51 2    
   100   50   52 1    
   101   52   53 1    
   102   52   54 1    
   103   52  113 1    
   104   53  114 1    
   105   53  115 1    
   106   53  116 1    
   107   54   55 am   BACKBONE|DICT|INTERRES
   108   54  117 1    
   109   55   56 2    
   110   55   57 1    
   111   57   58 1    
   112   57   59 1    
   113   57  118 1    
   114   58  119 1    
   115   58  120 1    
   116   58  121 1    
   117   59   60 am   BACKBONE|DICT|INTERRES
   118   59  122 1    
   119   60   61 2    
   120   60   62 1    
   121   62   63 1    
   122   62   64 1    
   123   62  123 1    
   124   63  124 1    
   125   63  125 1    
   126   63  126 1    
   127   64   65 am   BACKBONE|DICT|INTERRES
   128   64  127 1    
   129   65   66 2    
@<TRIPOS>SUBSTRUCTURE
     1 UNK         1 GROUP             0       ****    0 ROOT    
