@<TRIPOS>MOLECULE
3R135
127   129    1
SMALL
USER_CHARGES


@<TRIPOS>ATOM
      1 CA        -84.0401   31.0669  -75.0759 C.3       0 UNK        -0.1998 
      2 C         -82.7067   30.3834  -75.3408 C.2       0 UNK         0.4909 
      3 O         -82.1352   30.5583  -76.4177 O.2       0 UNK        -0.5240 
      4 N         -82.2084   29.6194  -74.3616 N.am      1 UNK        -0.4739 
      5 CA        -80.9752   28.8324  -74.4378 C.3       1 UNK         0.0864 
      6 C6        -80.1576   28.9114  -73.1170 C.3       11 UNK        -0.0881 
      7 S7        -81.0959   28.4705  -71.6095 S.3       11 UNK        -0.2682 
      8 C8        -80.2129   29.4371  -70.3377 C.3       11 UNK         0.0289 
      9 C9        -78.7386   29.0632  -70.2162 C.ar      11 UNK        -0.0687 
     10 C10       -78.3494   27.7231  -70.1272 C.ar      11 UNK        -0.0823 
     11 C11       -76.9980   27.3762  -70.0472 C.ar      11 UNK        -0.0830 
     12 C12       -76.0340   28.3859  -69.9933 C.ar      11 UNK        -0.1021 
     13 C13       -76.4063   29.7326  -70.0580 C.ar      11 UNK        -0.0753 
     14 C14       -77.7604   30.0629  -70.1793 C.ar      11 UNK        -0.0933 
     15 C15       -75.3580   30.8350  -69.9462 C.3       11 UNK         0.0166 
     16 S16       -73.9087   30.5807  -71.0237 S.3       11 UNK        -0.2615 
     17 C17       -74.5808   30.9631  -72.6794 C.3       11 UNK        -0.0865 
     18 CA        -74.3549   29.8292  -73.7253 C.3       10 UNK         0.0862 
     19 C         -74.9608   30.1907  -75.1169 C.2       10 UNK         0.5551 
     20 N         -74.3141   29.8694  -76.2319 N.am      10 UNK        -0.7319 
     21 O         -76.0491   30.7559  -75.1892 O.2       10 UNK        -0.5018 
     22 N         -72.9644   29.3414  -73.7856 N.am      10 UNK        -0.4509 
     23 C         -71.8780   30.0666  -74.0875 C.2       10 UNK         0.4899 
     24 O         -71.8892   31.2816  -74.2873 O.2       10 UNK        -0.4839 
     25 CA        -70.5406   29.3103  -74.2044 C.3       9 UNK         0.0222 
     26 CB        -69.7414   29.4421  -72.8975 C.3       9 UNK        -0.1966 
     27 N         -70.6633   27.8890  -74.5532 N.am      9 UNK        -0.4218 
     28 C         -71.2092   27.4045  -75.6783 C.2       9 UNK         0.5020 
     29 O         -71.7038   28.1201  -76.5533 O.2       9 UNK        -0.5274 
     30 CA        -71.1879   25.8743  -75.8544 C.3       8 UNK         0.0270 
     31 CB        -71.2865   25.1060  -74.5196 C.3       8 UNK        -0.1976 
     32 N         -72.3053   25.4685  -76.7025 N.am      8 UNK        -0.4313 
     33 C         -72.2158   24.8550  -77.8888 C.2       8 UNK         0.5041 
     34 O         -71.1461   24.5310  -78.4086 O.2       8 UNK        -0.5577 
     35 CA        -73.5288   24.5164  -78.6263 C.3       7 UNK         0.0284 
     36 CB        -73.7489   22.9944  -78.6584 C.3       7 UNK        -0.1958 
     37 N         -74.7147   25.1473  -78.0431 N.am      7 UNK        -0.4454 
     38 C         -75.0291   26.4453  -78.1458 C.2       7 UNK         0.5089 
     39 O         -74.4112   27.2478  -78.8449 O.2       7 UNK        -0.5125 
     40 CA        -76.2180   26.9344  -77.3000 C.3       6 UNK         0.0408 
     41 CB        -77.5203   26.8678  -78.1119 C.3       6 UNK        -0.1791 
     42 N         -76.3901   26.1934  -76.0468 N.am      6 UNK        -0.4762 
     43 C         -75.5023   26.1163  -75.0435 C.2       6 UNK         0.5007 
     44 O         -74.4106   26.6820  -75.0469 O.2       6 UNK        -0.5032 
     45 CA        -75.8827   25.2197  -73.8540 C.3       5 UNK         0.0783 
     46 C46       -76.8257   25.9718  -72.8889 C.3       11 UNK        -0.0857 
     47 S47       -77.2923   24.9689  -71.4342 S.3       11 UNK        -0.2512 
     48 C48       -76.5702   25.9133  -70.0485 C.3       11 UNK         0.0225 
     49 N         -76.4595   23.9638  -74.3347 N.am      5 UNK        -0.4615 
     50 C         -75.7487   22.9284  -74.7965 C.2       4 UNK         0.5053 
     51 O         -74.5188   22.9020  -74.8280 O.2       4 UNK        -0.5105 
     52 CA        -76.5435   21.7197  -75.3217 C.3       4 UNK         0.0263 
     53 CB        -76.7778   20.7024  -74.1936 C.3       4 UNK        -0.1981 
     54 N         -77.8313   22.0894  -75.9170 N.am      4 UNK        -0.4224 
     55 C         -77.9648   22.7835  -77.0558 C.2       3 UNK         0.4895 
     56 O         -77.0161   23.1635  -77.7420 O.2       3 UNK        -0.5091 
     57 CA        -79.3985   23.1554  -77.4760 C.3       3 UNK         0.0250 
     58 CB        -80.0580   21.9899  -78.2304 C.3       3 UNK        -0.1996 
     59 N         -80.2690   23.5840  -76.3712 N.am      3 UNK        -0.4254 
     60 C         -80.0023   24.5971  -75.5349 C.2       2 UNK         0.5004 
     61 O         -78.9360   25.2134  -75.5292 O.2       2 UNK        -0.5226 
     62 CA        -81.0819   24.9623  -74.5036 C.3       2 UNK         0.0269 
     63 CB        -80.9220   24.1038  -73.2389 C.3       2 UNK        -0.1926 
     64 N         -80.9926   26.3768  -74.1291 N.am      2 UNK        -0.4687 
     65 C         -81.2989   27.4036  -74.9344 C.2       1 UNK         0.5165 
     66 O         -81.8167   27.2518  -76.0434 O.2       1 UNK        -0.5079 
     67 H67       -84.4246   30.8403  -74.0816 H         1 UNK         0.0900 
     68 H68       -84.7796   30.7420  -75.8074 H         1 UNK         0.0900 
     69 H69       -83.9308   32.1479  -75.1585 H         1 UNK         0.0900 
     70 H70       -82.7297   29.5057  -73.5032 H         1 UNK         0.2959 
     71 H71       -80.3346   29.2569  -75.2144 H         1 UNK         0.1079 
     72 H72       -79.7938   29.9335  -72.9991 H         1 UNK         0.0837 
     73 H73       -79.2574   28.2964  -73.1742 H         1 UNK         0.0837 
     74 H74       -80.3272   30.4983  -70.5642 H         1 UNK         0.0685 
     75 H75       -80.6960   29.2728  -69.3738 H         1 UNK         0.0685 
     76 H76       -79.0989   26.9440  -70.1561 H         1 UNK         0.1434 
     77 H77       -74.9877   28.1257  -69.9078 H         1 UNK         0.1329 
     78 H78       -78.0556   31.1022  -70.2288 H         1 UNK         0.1335 
     79 H79       -75.0144   30.8745  -68.9118 H         1 UNK         0.0680 
     80 H80       -75.7915   31.8129  -70.1616 H         1 UNK         0.0680 
     81 H81       -74.1281   31.8949  -73.0216 H         1 UNK         0.1032 
     82 H82       -75.6482   31.1716  -72.5866 H         1 UNK         0.1032 
     83 H83       -74.9358   28.9704  -73.3874 H         1 UNK         0.0461 
     84 H84       -73.4433   29.3532  -76.1928 H         1 UNK         0.3453 
     85 H85       -74.7156   30.1077  -77.1236 H         1 UNK         0.3453 
     86 H86       -72.8579   28.3421  -73.6907 H         1 UNK         0.2984 
     87 H87       -69.9691   29.7900  -75.0017 H         1 UNK         0.0554 
     88 H88       -68.7483   29.0021  -72.9897 H         1 UNK         0.0847 
     89 H89       -70.2503   28.9582  -72.0627 H         1 UNK         0.0847 
     90 H90       -69.6040   30.4906  -72.6285 H         1 UNK         0.0847 
     91 H91       -70.2843   27.2297  -73.8889 H         1 UNK         0.3141 
     92 H92       -70.2377   25.6233  -76.3294 H         1 UNK         0.0743 
     93 H93       -71.3743   24.0329  -74.6925 H         1 UNK         0.0784 
     94 H94       -70.3997   25.2519  -73.9022 H         1 UNK         0.0784 
     95 H95       -72.1566   25.4138  -73.9378 H         1 UNK         0.0784 
     96 H96       -73.2150   25.7823  -76.3790 H         1 UNK         0.3213 
     97 H97       -73.4230   24.8698  -79.6542 H         1 UNK         0.0855 
     98 H98       -73.8731   22.5855  -77.6547 H         1 UNK         0.0814 
     99 H99       -72.9011   22.4839  -79.1171 H         1 UNK         0.0814 
    100 H100      -74.6348   22.7336  -79.2379 H         1 UNK         0.0814 
    101 H101      -75.3384   24.5470  -77.5155 H         1 UNK         0.3105 
    102 H102      -76.0384   27.9770  -77.0403 H         1 UNK         0.0547 
    103 H103      -77.7556   25.8456  -78.4083 H         1 UNK         0.0837 
    104 H104      -78.3655   27.2544  -77.5419 H         1 UNK         0.0837 
    105 H105      -77.4428   27.4624  -79.0229 H         1 UNK         0.0837 
    106 H106      -77.2887   25.7255  -75.9233 H         1 UNK         0.3020 
    107 H107      -74.9610   24.9918  -73.3130 H         1 UNK         0.1245 
    108 H108      -76.3541   26.9006  -72.5656 H         1 UNK         0.0781 
    109 H109      -77.7466   26.2665  -73.3944 H         1 UNK         0.0781 
    110 H110      -76.8738   25.4525  -69.1078 H         1 UNK         0.0836 
    111 H111      -75.4837   25.8262  -70.0997 H         1 UNK         0.0836 
    112 H112      -77.4678   23.9344  -74.3931 H         1 UNK         0.3022 
    113 H113      -75.9393   21.2408  -76.0956 H         1 UNK         0.0747 
    114 H114      -77.2723   19.8044  -74.5644 H         1 UNK         0.0793 
    115 H115      -75.8319   20.3893  -73.7493 H         1 UNK         0.0793 
    116 H116      -77.3909   21.1195  -73.3934 H         1 UNK         0.0793 
    117 H117      -78.6656   21.8203  -75.4162 H         1 UNK         0.3047 
    118 H118      -79.3209   23.9985  -78.1650 H         1 UNK         0.0822 
    119 H119      -81.0245   22.2798  -78.6431 H         1 UNK         0.0807 
    120 H120      -80.2138   21.1247  -77.5848 H         1 UNK         0.0807 
    121 H121      -79.4368   21.6649  -79.0665 H         1 UNK         0.0807 
    122 H122      -81.1597   23.1137  -76.2948 H         1 UNK         0.2946 
    123 H123      -82.0660   24.7806  -74.9418 H         1 UNK         0.1144 
    124 H124      -81.6862   24.3423  -72.4988 H         1 UNK         0.0793 
    125 H125      -79.9475   24.2510  -72.7719 H         1 UNK         0.0793 
    126 H126      -81.0165   23.0417  -73.4688 H         1 UNK         0.0793 
    127 H127      -80.5903   26.5846  -73.2258 H         1 UNK         0.2896 
@<TRIPOS>BOND
     1    1    2 1    
     2    1   67 1    
     3    1   68 1    
     4    1   69 1    
     5    2    3 2    
     6    2    4 am   BACKBONE|DICT|INTERRES
     7    4    5 1    
     8    4   70 1    
     9    5    6 1    
    10    5   65 1    
    11    5   71 1    
    12    6    7 1    
    13    6   72 1    
    14    6   73 1    
    15    7    8 1    
    16    8    9 1    
    17    8   74 1    
    18    8   75 1    
    19    9   10 ar   
    20    9   14 ar   
    21   10   11 ar   
    22   10   76 1    
    23   11   12 ar   
    24   11   48 1    
    25   12   13 ar   
    26   12   77 1    
    27   13   14 ar   
    28   13   15 1    
    29   14   78 1    
    30   15   16 1    
    31   15   79 1    
    32   15   80 1    
    33   16   17 1    
    34   17   18 1    
    35   17   81 1    
    36   17   82 1    
    37   18   19 1    
    38   18   22 1    
    39   18   83 1    
    40   19   20 am   BACKBONE|DICT|INTERRES
    41   19   21 2    
    42   20   84 1    
    43   20   85 1    
    44   22   23 am   BACKBONE|DICT|INTERRES
    45   22   86 1    
    46   23   24 2    
    47   23   25 1    
    48   25   26 1    
    49   25   27 1    
    50   25   87 1    
    51   26   88 1    
    52   26   89 1    
    53   26   90 1    
    54   27   28 am   BACKBONE|DICT|INTERRES
    55   27   91 1    
    56   28   29 2    
    57   28   30 1    
    58   30   31 1    
    59   30   32 1    
    60   30   92 1    
    61   31   93 1    
    62   31   94 1    
    63   31   95 1    
    64   32   33 am   BACKBONE|DICT|INTERRES
    65   32   96 1    
    66   33   34 2    
    67   33   35 1    
    68   35   36 1    
    69   35   37 1    
    70   35   97 1    
    71   36   98 1    
    72   36   99 1    
    73   36  100 1    
    74   37   38 am   BACKBONE|DICT|INTERRES
    75   37  101 1    
    76   38   39 2    
    77   38   40 1    
    78   40   41 1    
    79   40   42 1    
    80   40  102 1    
    81   41  103 1    
    82   41  104 1    
    83   41  105 1    
    84   42   43 am   BACKBONE|DICT|INTERRES
    85   42  106 1    
    86   43   44 2    
    87   43   45 1    
    88   45   46 1    
    89   45   49 1    
    90   45  107 1    
    91   46   47 1    
    92   46  108 1    
    93   46  109 1    
    94   47   48 1    
    95   48  110 1    
    96   48  111 1    
    97   49   50 am   BACKBONE|DICT|INTERRES
    98   49  112 1    
    99   50   51 2    
   100   50   52 1    
   101   52   53 1    
   102   52   54 1    
   103   52  113 1    
   104   53  114 1    
   105   53  115 1    
   106   53  116 1    
   107   54   55 am   BACKBONE|DICT|INTERRES
   108   54  117 1    
   109   55   56 2    
   110   55   57 1    
   111   57   58 1    
   112   57   59 1    
   113   57  118 1    
   114   58  119 1    
   115   58  120 1    
   116   58  121 1    
   117   59   60 am   BACKBONE|DICT|INTERRES
   118   59  122 1    
   119   60   61 2    
   120   60   62 1    
   121   62   63 1    
   122   62   64 1    
   123   62  123 1    
   124   63  124 1    
   125   63  125 1    
   126   63  126 1    
   127   64   65 am   BACKBONE|DICT|INTERRES
   128   64  127 1    
   129   65   66 2    
@<TRIPOS>SUBSTRUCTURE
     1 UNK         1 GROUP             0       ****    0 ROOT    
