@<TRIPOS>MOLECULE
3R135
127   129    1
SMALL
USER_CHARGES


@<TRIPOS>ATOM
      1 CA        -80.8435   28.7532  -80.5610 C.3       0 UNK        -0.1998 
      2 C         -80.1489   28.1409  -79.3537 C.2       0 UNK         0.4909 
      3 O         -79.0596   27.5851  -79.4935 O.2       0 UNK        -0.5240 
      4 N         -80.7729   28.2365  -78.1749 N.am      1 UNK        -0.4739 
      5 CA        -80.2811   27.6799  -76.9155 C.3       1 UNK         0.0864 
      6 C6        -79.2723   28.6246  -76.1986 C.3       11 UNK        -0.0881 
      7 S7        -78.1836   27.7162  -75.0519 S.3       11 UNK        -0.2682 
      8 C8        -78.3846   28.6225  -73.4762 C.3       11 UNK         0.0289 
      9 C9        -77.5391   28.0542  -72.3358 C.ar      11 UNK        -0.0687 
     10 C10       -77.2347   26.6899  -72.2697 C.ar      11 UNK        -0.0823 
     11 C11       -76.4400   26.1766  -71.2436 C.ar      11 UNK        -0.0830 
     12 C12       -75.9957   27.0301  -70.2328 C.ar      11 UNK        -0.1021 
     13 C13       -76.3242   28.3893  -70.2553 C.ar      11 UNK        -0.0753 
     14 C14       -77.0813   28.8992  -71.3172 C.ar      11 UNK        -0.0933 
     15 C15       -75.9045   29.2802  -69.0949 C.3       11 UNK         0.0166 
     16 S16       -74.1022   29.5327  -69.0324 S.3       11 UNK        -0.2615 
     17 C17       -73.8832   31.1131  -69.9244 C.3       11 UNK        -0.0865 
     18 CA        -73.0897   30.9956  -71.2507 C.3       10 UNK         0.0862 
     19 C         -71.6052   30.5645  -71.0402 C.2       10 UNK         0.5551 
     20 N         -71.1067   29.5174  -71.6882 N.am      10 UNK        -0.7319 
     21 O         -70.8843   31.2091  -70.2820 O.2       10 UNK        -0.5018 
     22 N         -73.8318   30.2204  -72.2543 N.am      10 UNK        -0.4509 
     23 C         -73.6623   30.3511  -73.5735 C.2       10 UNK         0.4899 
     24 O         -72.9215   31.1861  -74.0979 O.2       10 UNK        -0.4839 
     25 CA        -74.4629   29.3893  -74.4650 C.3       9 UNK         0.0222 
     26 CB        -75.5000   30.1927  -75.2674 C.3       9 UNK        -0.1966 
     27 N         -73.6065   28.6398  -75.3912 N.am      9 UNK        -0.4218 
     28 C         -72.5119   27.9335  -75.0641 C.2       9 UNK         0.5020 
     29 O         -72.1319   27.7733  -73.9020 O.2       9 UNK        -0.5274 
     30 CA        -71.7035   27.2936  -76.2119 C.3       8 UNK         0.0270 
     31 CB        -71.0011   25.9936  -75.7752 C.3       8 UNK        -0.1976 
     32 N         -72.5261   27.0163  -77.3920 N.am      8 UNK        -0.4313 
     33 C         -72.6728   27.8334  -78.4443 C.2       8 UNK         0.5041 
     34 O         -72.1006   28.9187  -78.5469 O.2       8 UNK        -0.5577 
     35 CA        -73.6319   27.3876  -79.5660 C.3       7 UNK         0.0284 
     36 CB        -72.8431   26.7729  -80.7335 C.3       7 UNK        -0.1958 
     37 N         -74.6605   26.4388  -79.1288 N.am      7 UNK        -0.4454 
     38 C         -75.6278   26.7096  -78.2412 C.2       7 UNK         0.5089 
     39 O         -75.7762   27.8146  -77.7230 O.2       7 UNK        -0.5125 
     40 CA        -76.5549   25.5472  -77.8312 C.3       6 UNK         0.0408 
     41 CB        -76.6462   24.4239  -78.8864 C.3       6 UNK        -0.1791 
     42 N         -76.2108   24.9760  -76.5231 N.am      6 UNK        -0.4762 
     43 C         -75.0070   24.5409  -76.1096 C.2       6 UNK         0.5007 
     44 O         -73.9806   24.6043  -76.7876 O.2       6 UNK        -0.5032 
     45 CA        -74.9354   23.9049  -74.7044 C.3       5 UNK         0.0783 
     46 C46       -74.5788   24.9854  -73.6552 C.3       11 UNK        -0.0857 
     47 S47       -74.4399   24.3569  -71.9448 S.3       11 UNK        -0.2512 
     48 C48       -76.0816   24.6968  -71.2242 C.3       11 UNK         0.0225 
     49 N         -76.1598   23.1620  -74.3793 N.am      5 UNK        -0.4615 
     50 C         -76.5667   22.0586  -75.0208 C.2       4 UNK         0.5053 
     51 O         -75.8976   21.5033  -75.8931 O.2       4 UNK        -0.5105 
     52 CA        -77.9360   21.4516  -74.6508 C.3       4 UNK         0.0263 
     53 CB        -77.7483   20.0544  -74.0336 C.3       4 UNK        -0.1981 
     54 N         -78.8104   22.2338  -73.7656 N.am      4 UNK        -0.4224 
     55 C         -79.2870   23.4679  -73.9764 C.2       3 UNK         0.4895 
     56 O         -78.9039   24.2168  -74.8799 O.2       3 UNK        -0.5091 
     57 CA        -80.3813   23.9325  -73.0045 C.3       3 UNK         0.0250 
     58 CB        -79.8805   24.0482  -71.5511 C.3       3 UNK        -0.1996 
     59 N         -80.9043   25.2175  -73.4525 N.am      3 UNK        -0.4254 
     60 C         -82.1305   25.6977  -73.2122 C.2       2 UNK         0.5004 
     61 O         -82.9805   25.0990  -72.5518 O.2       2 UNK        -0.5226 
     62 CA        -82.4718   27.0835  -73.7915 C.3       2 UNK         0.0269 
     63 CB        -82.5695   28.1255  -72.6641 C.3       2 UNK        -0.1926 
     64 N         -81.4827   27.5396  -74.7722 N.am      2 UNK        -0.4687 
     65 C         -81.4931   27.2330  -76.0746 C.2       1 UNK         0.5165 
     66 O         -82.4091   26.6095  -76.6154 O.2       1 UNK        -0.5079 
     67 H67       -81.0384   27.9863  -81.3101 H         1 UNK         0.0900 
     68 H68       -80.2090   29.5161  -81.0111 H         1 UNK         0.0900 
     69 H69       -81.7934   29.2163  -80.2944 H         1 UNK         0.0900 
     70 H70       -81.6940   28.6516  -78.1260 H         1 UNK         0.2959 
     71 H71       -79.7597   26.7499  -77.1539 H         1 UNK         0.1079 
     72 H72       -78.6120   29.0824  -76.9372 H         1 UNK         0.0837 
     73 H73       -79.7729   29.4575  -75.7017 H         1 UNK         0.0837 
     74 H74       -78.1255   29.6686  -73.6444 H         1 UNK         0.0685 
     75 H75       -79.4294   28.6041  -73.1694 H         1 UNK         0.0685 
     76 H76       -77.5980   26.0183  -73.0336 H         1 UNK         0.1434 
     77 H77       -75.4000   26.6358  -69.4206 H         1 UNK         0.1329 
     78 H78       -77.3349   29.9504  -71.3383 H         1 UNK         0.1335 
     79 H79       -76.4267   30.2375  -69.1204 H         1 UNK         0.0680 
     80 H80       -76.2128   28.8013  -68.1644 H         1 UNK         0.0680 
     81 H81       -73.3803   31.8098  -69.2511 H         1 UNK         0.1032 
     82 H82       -74.8547   31.5662  -70.1248 H         1 UNK         0.1032 
     83 H83       -73.0207   32.0142  -71.6381 H         1 UNK         0.0461 
     84 H84       -70.1442   29.2620  -71.5384 H         1 UNK         0.3453 
     85 H85       -71.6688   28.9857  -72.3446 H         1 UNK         0.3453 
     86 H86       -74.4272   29.4873  -71.8944 H         1 UNK         0.2984 
     87 H87       -74.9866   28.6630  -73.8401 H         1 UNK         0.0554 
     88 H88       -76.1362   29.5453  -75.8662 H         1 UNK         0.0847 
     89 H89       -76.1527   30.7618  -74.6048 H         1 UNK         0.0847 
     90 H90       -75.0243   30.9039  -75.9438 H         1 UNK         0.0847 
     91 H91       -73.8586   28.6931  -76.3686 H         1 UNK         0.3141 
     92 H92       -70.9232   28.0107  -76.4747 H         1 UNK         0.0743 
     93 H93       -70.3082   26.1773  -74.9530 H         1 UNK         0.0784 
     94 H94       -71.7132   25.2404  -75.4386 H         1 UNK         0.0784 
     95 H95       -70.4215   25.5637  -76.5921 H         1 UNK         0.0784 
     96 H96       -73.0646   26.1520  -77.3640 H         1 UNK         0.3213 
     97 H97       -74.1415   28.2825  -79.9298 H         1 UNK         0.0855 
     98 H98       -72.0876   27.4683  -81.1023 H         1 UNK         0.0814 
     99 H99       -73.4962   26.5332  -81.5728 H         1 UNK         0.0814 
    100 H100      -72.3267   25.8595  -80.4355 H         1 UNK         0.0814 
    101 H101      -74.5856   25.4934  -79.4751 H         1 UNK         0.3105 
    102 H102      -77.5507   25.9778  -77.7251 H         1 UNK         0.0547 
    103 H103      -76.9030   24.8259  -79.8676 H         1 UNK         0.0837 
    104 H104      -75.7140   23.8667  -78.9838 H         1 UNK         0.0837 
    105 H105      -77.4254   23.7089  -78.6224 H         1 UNK         0.0837 
    106 H106      -76.9903   24.8838  -75.8811 H         1 UNK         0.3020 
    107 H107      -74.1172   23.1810  -74.7283 H         1 UNK         0.1245 
    108 H108      -73.6050   25.4123  -73.8968 H         1 UNK         0.0781 
    109 H109      -75.2694   25.8243  -73.7060 H         1 UNK         0.0781 
    110 H110      -76.0908   24.3353  -70.1947 H         1 UNK         0.0836 
    111 H111      -76.8349   24.1104  -71.7493 H         1 UNK         0.0836 
    112 H112      -76.7708   23.5660  -73.6885 H         1 UNK         0.3022 
    113 H113      -78.4746   21.3322  -75.5931 H         1 UNK         0.0747 
    114 H114      -78.7041   19.5506  -73.8877 H         1 UNK         0.0793 
    115 H115      -77.1474   19.4132  -74.6803 H         1 UNK         0.0793 
    116 H116      -77.2433   20.1066  -73.0681 H         1 UNK         0.0793 
    117 H117      -79.1791   21.7248  -72.9749 H         1 UNK         0.3047 
    118 H118      -81.1818   23.1906  -73.0491 H         1 UNK         0.0822 
    119 H119      -80.7077   24.2502  -70.8703 H         1 UNK         0.0807 
    120 H120      -79.1615   24.8567  -71.4329 H         1 UNK         0.0807 
    121 H121      -79.4061   23.1289  -71.2070 H         1 UNK         0.0807 
    122 H122      -80.2837   25.7254  -74.0699 H         1 UNK         0.2946 
    123 H123      -83.4499   27.0044  -74.2724 H         1 UNK         0.1144 
    124 H124      -82.8283   29.1102  -73.0538 H         1 UNK         0.0793 
    125 H125      -81.6338   28.2160  -72.1113 H         1 UNK         0.0793 
    126 H126      -83.3436   27.8502  -71.9463 H         1 UNK         0.0793 
    127 H127      -80.6879   28.0483  -74.4135 H         1 UNK         0.2896 
@<TRIPOS>BOND
     1    1    2 1    
     2    1   67 1    
     3    1   68 1    
     4    1   69 1    
     5    2    3 2    
     6    2    4 am   BACKBONE|DICT|INTERRES
     7    4    5 1    
     8    4   70 1    
     9    5    6 1    
    10    5   65 1    
    11    5   71 1    
    12    6    7 1    
    13    6   72 1    
    14    6   73 1    
    15    7    8 1    
    16    8    9 1    
    17    8   74 1    
    18    8   75 1    
    19    9   10 ar   
    20    9   14 ar   
    21   10   11 ar   
    22   10   76 1    
    23   11   12 ar   
    24   11   48 1    
    25   12   13 ar   
    26   12   77 1    
    27   13   14 ar   
    28   13   15 1    
    29   14   78 1    
    30   15   16 1    
    31   15   79 1    
    32   15   80 1    
    33   16   17 1    
    34   17   18 1    
    35   17   81 1    
    36   17   82 1    
    37   18   19 1    
    38   18   22 1    
    39   18   83 1    
    40   19   20 am   BACKBONE|DICT|INTERRES
    41   19   21 2    
    42   20   84 1    
    43   20   85 1    
    44   22   23 am   BACKBONE|DICT|INTERRES
    45   22   86 1    
    46   23   24 2    
    47   23   25 1    
    48   25   26 1    
    49   25   27 1    
    50   25   87 1    
    51   26   88 1    
    52   26   89 1    
    53   26   90 1    
    54   27   28 am   BACKBONE|DICT|INTERRES
    55   27   91 1    
    56   28   29 2    
    57   28   30 1    
    58   30   31 1    
    59   30   32 1    
    60   30   92 1    
    61   31   93 1    
    62   31   94 1    
    63   31   95 1    
    64   32   33 am   BACKBONE|DICT|INTERRES
    65   32   96 1    
    66   33   34 2    
    67   33   35 1    
    68   35   36 1    
    69   35   37 1    
    70   35   97 1    
    71   36   98 1    
    72   36   99 1    
    73   36  100 1    
    74   37   38 am   BACKBONE|DICT|INTERRES
    75   37  101 1    
    76   38   39 2    
    77   38   40 1    
    78   40   41 1    
    79   40   42 1    
    80   40  102 1    
    81   41  103 1    
    82   41  104 1    
    83   41  105 1    
    84   42   43 am   BACKBONE|DICT|INTERRES
    85   42  106 1    
    86   43   44 2    
    87   43   45 1    
    88   45   46 1    
    89   45   49 1    
    90   45  107 1    
    91   46   47 1    
    92   46  108 1    
    93   46  109 1    
    94   47   48 1    
    95   48  110 1    
    96   48  111 1    
    97   49   50 am   BACKBONE|DICT|INTERRES
    98   49  112 1    
    99   50   51 2    
   100   50   52 1    
   101   52   53 1    
   102   52   54 1    
   103   52  113 1    
   104   53  114 1    
   105   53  115 1    
   106   53  116 1    
   107   54   55 am   BACKBONE|DICT|INTERRES
   108   54  117 1    
   109   55   56 2    
   110   55   57 1    
   111   57   58 1    
   112   57   59 1    
   113   57  118 1    
   114   58  119 1    
   115   58  120 1    
   116   58  121 1    
   117   59   60 am   BACKBONE|DICT|INTERRES
   118   59  122 1    
   119   60   61 2    
   120   60   62 1    
   121   62   63 1    
   122   62   64 1    
   123   62  123 1    
   124   63  124 1    
   125   63  125 1    
   126   63  126 1    
   127   64   65 am   BACKBONE|DICT|INTERRES
   128   64  127 1    
   129   65   66 2    
@<TRIPOS>SUBSTRUCTURE
     1 UNK         1 GROUP             0       ****    0 ROOT    
