@<TRIPOS>MOLECULE
3R135
127   129    1
SMALL
USER_CHARGES


@<TRIPOS>ATOM
      1 CA        -83.7993   25.1064  -74.5066 C.3       0 UNK        -0.1998 
      2 C         -82.7782   26.1606  -74.9039 C.2       0 UNK         0.4909 
      3 O         -82.5752   26.3993  -76.0950 O.2       0 UNK        -0.5240 
      4 N         -82.1212   26.7863  -73.9186 N.am      1 UNK        -0.4739 
      5 CA        -81.0554   27.7766  -74.1067 C.3       1 UNK         0.0864 
      6 C6        -80.6378   28.4618  -72.7787 C.3       11 UNK        -0.0881 
      7 S7        -80.3574   27.3148  -71.3828 S.3       11 UNK        -0.2682 
      8 C8        -79.3022   28.3233  -70.2944 C.3       11 UNK         0.0289 
      9 C9        -77.8809   28.4476  -70.8249 C.ar      11 UNK        -0.0687 
     10 C10       -77.0584   27.3184  -70.8822 C.ar      11 UNK        -0.0823 
     11 C11       -75.7460   27.4185  -71.3518 C.ar      11 UNK        -0.0830 
     12 C12       -75.2540   28.6624  -71.7525 C.ar      11 UNK        -0.1021 
     13 C13       -76.0674   29.7974  -71.7079 C.ar      11 UNK        -0.0753 
     14 C14       -77.3810   29.6864  -71.2413 C.ar      11 UNK        -0.0933 
     15 C15       -75.5208   31.1313  -72.1861 C.3       11 UNK         0.0166 
     16 S16       -74.3907   31.8622  -70.9653 S.3       11 UNK        -0.2615 
     17 C17       -73.3759   32.9341  -72.0454 C.3       11 UNK        -0.0865 
     18 CA        -71.9730   32.3472  -72.3634 C.3       10 UNK         0.0862 
     19 C         -71.0127   32.4345  -71.1382 C.2       10 UNK         0.5551 
     20 N         -70.5146   31.3279  -70.5995 N.am      10 UNK        -0.7319 
     21 O         -70.7054   33.5317  -70.6783 O.2       10 UNK        -0.5018 
     22 N         -72.0666   31.0216  -73.0022 N.am      10 UNK        -0.4509 
     23 C         -71.0926   30.4418  -73.7161 C.2       10 UNK         0.4899 
     24 O         -70.0140   30.9792  -73.9682 O.2       10 UNK        -0.4839 
     25 CA        -71.3544   29.0137  -74.2280 C.3       9 UNK         0.0222 
     26 CB        -70.9263   27.9816  -73.1716 C.3       9 UNK        -0.1966 
     27 N         -72.7423   28.7502  -74.6191 N.am      9 UNK        -0.4218 
     28 C         -73.3772   29.3253  -75.6491 C.2       9 UNK         0.5020 
     29 O         -72.8859   30.1944  -76.3720 O.2       9 UNK        -0.5274 
     30 CA        -74.8039   28.8242  -75.9330 C.3       8 UNK         0.0270 
     31 CB        -75.7994   29.9918  -76.0556 C.3       8 UNK        -0.1976 
     32 N         -74.8717   28.0150  -77.1526 N.am      8 UNK        -0.4313 
     33 C         -74.2520   26.8435  -77.3505 C.2       8 UNK         0.5041 
     34 O         -73.5026   26.3141  -76.5301 O.2       8 UNK        -0.5577 
     35 CA        -74.5579   26.1325  -78.6772 C.3       7 UNK         0.0284 
     36 CB        -73.3371   26.0877  -79.6182 C.3       7 UNK        -0.1958 
     37 N         -75.1459   24.8165  -78.4039 N.am      7 UNK        -0.4454 
     38 C         -74.5572   23.6509  -78.0973 C.2       7 UNK         0.5089 
     39 O         -73.3530   23.4082  -78.1949 O.2       7 UNK        -0.5125 
     40 CA        -75.5255   22.5842  -77.5535 C.3       6 UNK         0.0408 
     41 CB        -74.9041   21.1760  -77.4330 C.3       6 UNK        -0.1791 
     42 N         -76.1154   23.0447  -76.2899 N.am      6 UNK        -0.4762 
     43 C         -75.4948   23.2275  -75.1117 C.2       6 UNK         0.5007 
     44 O         -74.3516   22.8413  -74.8668 O.2       6 UNK        -0.5032 
     45 CA        -76.2901   23.9650  -74.0095 C.3       5 UNK         0.0783 
     46 C46       -75.9373   25.4725  -73.9634 C.3       11 UNK        -0.0857 
     47 S47       -74.3435   25.8198  -73.1425 S.3       11 UNK        -0.2512 
     48 C48       -74.8620   26.1825  -71.4339 C.3       11 UNK         0.0225 
     49 N         -77.7388   23.7885  -74.1387 N.am      5 UNK        -0.4615 
     50 C         -78.4042   22.6495  -73.9097 C.2       4 UNK         0.5053 
     51 O         -77.8719   21.6045  -73.5362 O.2       4 UNK        -0.5105 
     52 CA        -79.9201   22.6855  -74.1550 C.3       4 UNK         0.0263 
     53 CB        -80.6551   23.3045  -72.9541 C.3       4 UNK        -0.1981 
     54 N         -80.2401   23.4357  -75.3712 N.am      4 UNK        -0.4224 
     55 C         -80.1839   22.9246  -76.6099 C.2       3 UNK         0.4895 
     56 O         -79.9312   21.7444  -76.8519 O.2       3 UNK        -0.5091 
     57 CA        -80.4414   23.8862  -77.7836 C.3       3 UNK         0.0250 
     58 CB        -81.9118   23.8186  -78.2262 C.3       3 UNK        -0.1996 
     59 N         -80.0785   25.2724  -77.4733 N.am      3 UNK        -0.4254 
     60 C         -78.8116   25.7120  -77.4255 C.2       2 UNK         0.5004 
     61 O         -77.8383   25.0055  -77.6834 O.2       2 UNK        -0.5226 
     62 CA        -78.5670   27.1673  -76.9878 C.3       2 UNK         0.0269 
     63 CB        -78.4795   28.0803  -78.2211 C.3       2 UNK        -0.1926 
     64 N         -79.5739   27.6933  -76.0616 N.am      2 UNK        -0.4687 
     65 C         -79.8618   27.1611  -74.8656 C.2       1 UNK         0.5165 
     66 O         -79.2772   26.1784  -74.4046 O.2       1 UNK        -0.5079 
     67 H67       -84.7796   25.3657  -74.9052 H         1 UNK         0.0900 
     68 H68       -83.5125   24.1359  -74.9107 H         1 UNK         0.0900 
     69 H69       -83.8867   25.0116  -73.4244 H         1 UNK         0.0900 
     70 H70       -82.2954   26.5321  -72.9562 H         1 UNK         0.2959 
     71 H71       -81.4748   28.5594  -74.7428 H         1 UNK         0.1079 
     72 H72       -81.4234   29.1540  -72.4721 H         1 UNK         0.0837 
     73 H73       -79.7506   29.0789  -72.9321 H         1 UNK         0.0837 
     74 H74       -79.2712   27.8582  -69.3081 H         1 UNK         0.0685 
     75 H75       -79.7587   29.3046  -70.1557 H         1 UNK         0.0685 
     76 H76       -77.4496   26.3601  -70.5685 H         1 UNK         0.1434 
     77 H77       -74.2367   28.7430  -72.1059 H         1 UNK         0.1329 
     78 H78       -78.0122   30.5636  -71.2012 H         1 UNK         0.1335 
     79 H79       -76.3279   31.8335  -72.4010 H         1 UNK         0.0680 
     80 H80       -74.9872   30.9744  -73.1221 H         1 UNK         0.0680 
     81 H81       -73.9109   33.1255  -72.9769 H         1 UNK         0.1032 
     82 H82       -73.2836   33.9128  -71.5702 H         1 UNK         0.1032 
     83 H83       -71.5296   33.0113  -73.1080 H         1 UNK         0.0461 
     84 H84       -70.7632   30.4252  -70.9684 H         1 UNK         0.3453 
     85 H85       -69.8909   31.3992  -69.8112 H         1 UNK         0.3453 
     86 H86       -72.9095   30.5026  -72.8155 H         1 UNK         0.2984 
     87 H87       -70.7330   28.8665  -75.1139 H         1 UNK         0.0554 
     88 H88       -69.8880   28.1341  -72.8731 H         1 UNK         0.0847 
     89 H89       -71.0029   26.9648  -73.5580 H         1 UNK         0.0847 
     90 H90       -71.5380   28.0427  -72.2706 H         1 UNK         0.0847 
     91 H91       -73.2020   27.9790  -74.1531 H         1 UNK         0.3141 
     92 H92       -75.1258   28.2032  -75.0949 H         1 UNK         0.0743 
     93 H93       -75.6358   30.5702  -76.9658 H         1 UNK         0.0784 
     94 H94       -76.8291   29.6360  -76.0598 H         1 UNK         0.0784 
     95 H95       -75.7089   30.6836  -75.2201 H         1 UNK         0.0784 
     96 H96       -75.4145   28.4053  -77.9085 H         1 UNK         0.3213 
     97 H97       -75.3398   26.6899  -79.1954 H         1 UNK         0.0855 
     98 H98       -72.4633   25.6508  -79.1338 H         1 UNK         0.0814 
     99 H99       -73.0563   27.0938  -79.9313 H         1 UNK         0.0814 
    100 H100      -73.5480   25.5120  -80.5193 H         1 UNK         0.0814 
    101 H101      -76.1514   24.8500  -78.2315 H         1 UNK         0.3105 
    102 H102      -76.3500   22.5114  -78.2648 H         1 UNK         0.0547 
    103 H103      -75.6190   20.4609  -77.0266 H         1 UNK         0.0837 
    104 H104      -74.0191   21.1652  -76.7967 H         1 UNK         0.0837 
    105 H105      -74.5962   20.8082  -78.4122 H         1 UNK         0.0837 
    106 H106      -77.0432   23.4399  -76.3823 H         1 UNK         0.3020 
    107 H107      -76.0026   23.5146  -73.0565 H         1 UNK         0.1245 
    108 H108      -76.7184   26.0267  -73.4424 H         1 UNK         0.0781 
    109 H109      -75.9152   25.8943  -74.9692 H         1 UNK         0.0781 
    110 H110      -73.9737   26.3390  -70.8205 H         1 UNK         0.0836 
    111 H111      -75.3693   25.3083  -71.0231 H         1 UNK         0.0836 
    112 H112      -78.2748   24.6244  -74.3617 H         1 UNK         0.3022 
    113 H113      -80.2676   21.6561  -74.2676 H         1 UNK         0.0747 
    114 H114      -81.7353   23.2779  -73.0947 H         1 UNK         0.0793 
    115 H115      -80.4357   22.7534  -72.0388 H         1 UNK         0.0793 
    116 H116      -80.3641   24.3418  -72.7847 H         1 UNK         0.0793 
    117 H117      -80.3909   24.4297  -75.2630 H         1 UNK         0.3047 
    118 H118      -79.8255   23.5512  -78.6214 H         1 UNK         0.0822 
    119 H119      -82.1036   24.4801  -79.0711 H         1 UNK         0.0807 
    120 H120      -82.5932   24.0952  -77.4217 H         1 UNK         0.0807 
    121 H121      -82.1761   22.8079  -78.5400 H         1 UNK         0.0807 
    122 H122      -80.8344   25.8994  -77.2172 H         1 UNK         0.2946 
    123 H123      -77.6063   27.1862  -76.4694 H         1 UNK         0.1144 
    124 H124      -78.2218   29.1033  -77.9483 H         1 UNK         0.0793 
    125 H125      -79.4240   28.1098  -78.7661 H         1 UNK         0.0793 
    126 H126      -77.7170   27.7284  -78.9170 H         1 UNK         0.0793 
    127 H127      -80.1229   28.4741  -76.3924 H         1 UNK         0.2896 
@<TRIPOS>BOND
     1    1    2 1    
     2    1   67 1    
     3    1   68 1    
     4    1   69 1    
     5    2    3 2    
     6    2    4 am   BACKBONE|DICT|INTERRES
     7    4    5 1    
     8    4   70 1    
     9    5    6 1    
    10    5   65 1    
    11    5   71 1    
    12    6    7 1    
    13    6   72 1    
    14    6   73 1    
    15    7    8 1    
    16    8    9 1    
    17    8   74 1    
    18    8   75 1    
    19    9   10 ar   
    20    9   14 ar   
    21   10   11 ar   
    22   10   76 1    
    23   11   12 ar   
    24   11   48 1    
    25   12   13 ar   
    26   12   77 1    
    27   13   14 ar   
    28   13   15 1    
    29   14   78 1    
    30   15   16 1    
    31   15   79 1    
    32   15   80 1    
    33   16   17 1    
    34   17   18 1    
    35   17   81 1    
    36   17   82 1    
    37   18   19 1    
    38   18   22 1    
    39   18   83 1    
    40   19   20 am   BACKBONE|DICT|INTERRES
    41   19   21 2    
    42   20   84 1    
    43   20   85 1    
    44   22   23 am   BACKBONE|DICT|INTERRES
    45   22   86 1    
    46   23   24 2    
    47   23   25 1    
    48   25   26 1    
    49   25   27 1    
    50   25   87 1    
    51   26   88 1    
    52   26   89 1    
    53   26   90 1    
    54   27   28 am   BACKBONE|DICT|INTERRES
    55   27   91 1    
    56   28   29 2    
    57   28   30 1    
    58   30   31 1    
    59   30   32 1    
    60   30   92 1    
    61   31   93 1    
    62   31   94 1    
    63   31   95 1    
    64   32   33 am   BACKBONE|DICT|INTERRES
    65   32   96 1    
    66   33   34 2    
    67   33   35 1    
    68   35   36 1    
    69   35   37 1    
    70   35   97 1    
    71   36   98 1    
    72   36   99 1    
    73   36  100 1    
    74   37   38 am   BACKBONE|DICT|INTERRES
    75   37  101 1    
    76   38   39 2    
    77   38   40 1    
    78   40   41 1    
    79   40   42 1    
    80   40  102 1    
    81   41  103 1    
    82   41  104 1    
    83   41  105 1    
    84   42   43 am   BACKBONE|DICT|INTERRES
    85   42  106 1    
    86   43   44 2    
    87   43   45 1    
    88   45   46 1    
    89   45   49 1    
    90   45  107 1    
    91   46   47 1    
    92   46  108 1    
    93   46  109 1    
    94   47   48 1    
    95   48  110 1    
    96   48  111 1    
    97   49   50 am   BACKBONE|DICT|INTERRES
    98   49  112 1    
    99   50   51 2    
   100   50   52 1    
   101   52   53 1    
   102   52   54 1    
   103   52  113 1    
   104   53  114 1    
   105   53  115 1    
   106   53  116 1    
   107   54   55 am   BACKBONE|DICT|INTERRES
   108   54  117 1    
   109   55   56 2    
   110   55   57 1    
   111   57   58 1    
   112   57   59 1    
   113   57  118 1    
   114   58  119 1    
   115   58  120 1    
   116   58  121 1    
   117   59   60 am   BACKBONE|DICT|INTERRES
   118   59  122 1    
   119   60   61 2    
   120   60   62 1    
   121   62   63 1    
   122   62   64 1    
   123   62  123 1    
   124   63  124 1    
   125   63  125 1    
   126   63  126 1    
   127   64   65 am   BACKBONE|DICT|INTERRES
   128   64  127 1    
   129   65   66 2    
@<TRIPOS>SUBSTRUCTURE
     1 UNK         1 GROUP             0       ****    0 ROOT    
