@<TRIPOS>MOLECULE
3R135
127   129    1
SMALL
USER_CHARGES


@<TRIPOS>ATOM
      1 CA        -84.2314   25.4227  -70.7294 C.3       0 UNK        -0.1998 
      2 C         -83.0590   25.9307  -71.5545 C.2       0 UNK         0.4909 
      3 O         -82.0119   25.2834  -71.5860 O.2       0 UNK        -0.5240 
      4 N         -83.2371   27.0738  -72.2333 N.am      1 UNK        -0.4739 
      5 CA        -82.2673   27.8018  -73.0750 C.3       1 UNK         0.0864 
      6 C6        -80.9577   28.2015  -72.3437 C.3       11 UNK        -0.0881 
      7 S7        -81.2636   29.0907  -70.7722 S.3       11 UNK        -0.2682 
      8 C8        -79.9797   30.3920  -70.7809 C.3       11 UNK         0.0289 
      9 C9        -78.5624   29.8827  -71.0383 C.ar      11 UNK        -0.0687 
     10 C10       -78.1327   28.6337  -70.5720 C.ar      11 UNK        -0.0823 
     11 C11       -76.8691   28.1428  -70.9116 C.ar      11 UNK        -0.0830 
     12 C12       -76.0052   28.9376  -71.6675 C.ar      11 UNK        -0.1021 
     13 C13       -76.3966   30.2098  -72.0877 C.ar      11 UNK        -0.0753 
     14 C14       -77.6772   30.6745  -71.7770 C.ar      11 UNK        -0.0933 
     15 C15       -75.4399   31.0688  -72.8950 C.3       11 UNK         0.0166 
     16 S16       -75.7178   30.8440  -74.6745 S.3       11 UNK        -0.2615 
     17 C17       -74.2617   31.6973  -75.3653 C.3       11 UNK        -0.0865 
     18 CA        -73.2743   30.7297  -76.0857 C.3       10 UNK         0.0862 
     19 C         -72.1648   31.4867  -76.8796 C.2       10 UNK         0.5551 
     20 N         -70.9733   30.9247  -77.0460 N.am      10 UNK        -0.7319 
     21 O         -72.3903   32.5870  -77.3786 O.2       10 UNK        -0.5018 
     22 N         -72.7670   29.6304  -75.2337 N.am      10 UNK        -0.4509 
     23 C         -72.0332   29.7879  -74.1235 C.2       10 UNK         0.4899 
     24 O         -71.7566   30.8918  -73.6524 O.2       10 UNK        -0.4839 
     25 CA        -71.4697   28.5421  -73.4175 C.3       9 UNK         0.0222 
     26 CB        -71.7599   28.5590  -71.9034 C.3       9 UNK        -0.1966 
     27 N         -71.8883   27.2482  -73.9769 N.am      9 UNK        -0.4218 
     28 C         -71.0710   26.1829  -74.0255 C.2       9 UNK         0.5020 
     29 O         -69.8659   26.2321  -73.7707 O.2       9 UNK        -0.5274 
     30 CA        -71.6862   24.8153  -74.3654 C.3       8 UNK         0.0270 
     31 CB        -72.4784   24.2624  -73.1685 C.3       8 UNK        -0.1976 
     32 N         -72.5241   24.8298  -75.5628 N.am      8 UNK        -0.4313 
     33 C         -72.0584   24.9575  -76.8133 C.2       8 UNK         0.5041 
     34 O         -70.8634   25.0576  -77.0948 O.2       8 UNK        -0.5577 
     35 CA        -73.0998   24.9818  -77.9473 C.3       7 UNK         0.0284 
     36 CB        -73.4452   23.5542  -78.3998 C.3       7 UNK        -0.1958 
     37 N         -74.3266   25.6941  -77.5818 N.am      7 UNK        -0.4454 
     38 C         -74.3766   26.9994  -77.2864 C.2       7 UNK         0.5089 
     39 O         -73.4040   27.7483  -77.3594 O.2       7 UNK        -0.5125 
     40 CA        -75.7123   27.5504  -76.7593 C.3       6 UNK         0.0408 
     41 CB        -76.6829   27.8576  -77.9086 C.3       6 UNK        -0.1791 
     42 N         -76.3437   26.6614  -75.7809 N.am      6 UNK        -0.4762 
     43 C         -75.8033   26.3360  -74.5958 C.2       6 UNK         0.5007 
     44 O         -74.7374   26.7945  -74.1783 O.2       6 UNK        -0.5032 
     45 CA        -76.5465   25.2659  -73.7715 C.3       5 UNK         0.0783 
     46 C46       -77.7016   25.8790  -72.9338 C.3       11 UNK        -0.0857 
     47 S47       -77.5838   25.4527  -71.1637 S.3       11 UNK        -0.2512 
     48 C48       -76.4537   26.7328  -70.5144 C.3       11 UNK         0.0225 
     49 N         -77.0186   24.1833  -74.6382 N.am      5 UNK        -0.4615 
     50 C         -76.2259   23.2853  -75.2372 C.2       4 UNK         0.5053 
     51 O         -75.0073   23.2401  -75.0782 O.2       4 UNK        -0.5105 
     52 CA        -76.9000   22.3007  -76.2095 C.3       4 UNK         0.0263 
     53 CB        -77.4296   21.0732  -75.4519 C.3       4 UNK        -0.1981 
     54 N         -77.9913   22.9149  -76.9711 N.am      4 UNK        -0.4224 
     55 C         -77.8283   23.9029  -77.8634 C.2       3 UNK         0.4895 
     56 O         -76.7288   24.3346  -78.2045 O.2       3 UNK        -0.5091 
     57 CA        -79.0990   24.5565  -78.4367 C.3       3 UNK         0.0250 
     58 CB        -79.4924   23.8889  -79.7636 C.3       3 UNK        -0.1996 
     59 N         -80.2448   24.5387  -77.5200 N.am      3 UNK        -0.4254 
     60 C         -80.2739   25.1111  -76.3076 C.2       2 UNK         0.5004 
     61 O         -79.3221   25.7239  -75.8171 O.2       2 UNK        -0.5226 
     62 CA        -81.5535   24.8662  -75.4909 C.3       2 UNK         0.0269 
     63 CB        -81.5683   23.4255  -74.9496 C.3       2 UNK        -0.1926 
     64 N         -81.7162   25.7762  -74.3569 N.am      2 UNK        -0.4687 
     65 C         -81.9799   27.0867  -74.4160 C.2       1 UNK         0.5165 
     66 O         -82.0655   27.7177  -75.4706 O.2       1 UNK        -0.5079 
     67 H67       -85.0946   26.0848  -70.7945 H         1 UNK         0.0900 
     68 H68       -84.5339   24.4349  -71.0760 H         1 UNK         0.0900 
     69 H69       -83.9437   25.3432  -69.6814 H         1 UNK         0.0900 
     70 H70       -84.1403   27.5229  -72.1706 H         1 UNK         0.2959 
     71 H71       -82.7720   28.7321  -73.3418 H         1 UNK         0.1079 
     72 H72       -80.3470   28.8292  -72.9956 H         1 UNK         0.0837 
     73 H73       -80.3528   27.3205  -72.1223 H         1 UNK         0.0837 
     74 H74       -80.2560   31.1305  -71.5352 H         1 UNK         0.0685 
     75 H75       -79.9973   30.9081  -69.8204 H         1 UNK         0.0685 
     76 H76       -78.8015   28.0110  -69.9940 H         1 UNK         0.1434 
     77 H77       -75.0344   28.5591  -71.9516 H         1 UNK         0.1329 
     78 H78       -77.9895   31.6477  -72.1308 H         1 UNK         0.1335 
     79 H79       -75.5668   32.1213  -72.6369 H         1 UNK         0.0680 
     80 H80       -74.4100   30.8104  -72.6465 H         1 UNK         0.0680 
     81 H81       -74.6423   32.4391  -76.0696 H         1 UNK         0.1032 
     82 H82       -73.7518   32.2693  -74.5892 H         1 UNK         0.1032 
     83 H83       -73.8545   30.2406  -76.8670 H         1 UNK         0.0461 
     84 H84       -70.7858   30.0107  -76.6665 H         1 UNK         0.3453 
     85 H85       -70.2632   31.4132  -77.5681 H         1 UNK         0.3453 
     86 H86       -72.9094   28.7040  -75.6184 H         1 UNK         0.2984 
     87 H87       -70.3899   28.6479  -73.5392 H         1 UNK         0.0554 
     88 H88       -71.4626   29.5041  -71.4473 H         1 UNK         0.0847 
     89 H89       -71.2103   27.7718  -71.3873 H         1 UNK         0.0847 
     90 H90       -72.8184   28.4143  -71.6958 H         1 UNK         0.0847 
     91 H91       -72.8834   27.1183  -74.1566 H         1 UNK         0.3141 
     92 H92       -70.8607   24.1253  -74.5542 H         1 UNK         0.0743 
     93 H93       -73.3373   24.8862  -72.9234 H         1 UNK         0.0784 
     94 H94       -72.8415   23.2536  -73.3653 H         1 UNK         0.0784 
     95 H95       -71.8511   24.2110  -72.2777 H         1 UNK         0.0784 
     96 H96       -73.5171   24.6738  -75.4287 H         1 UNK         0.3213 
     97 H97       -72.6527   25.5081  -78.7934 H         1 UNK         0.0855 
     98 H98       -73.9050   22.9763  -77.5980 H         1 UNK         0.0814 
     99 H99       -72.5493   23.0182  -78.7159 H         1 UNK         0.0814 
    100 H100      -74.1345   23.5613  -79.2445 H         1 UNK         0.0814 
    101 H101      -75.1925   25.1583  -77.5817 H         1 UNK         0.3105 
    102 H102      -75.4984   28.4874  -76.2470 H         1 UNK         0.0547 
    103 H103      -76.2612   28.6089  -78.5774 H         1 UNK         0.0837 
    104 H104      -76.8952   26.9747  -78.5100 H         1 UNK         0.0837 
    105 H105      -77.6296   28.2496  -77.5366 H         1 UNK         0.0837 
    106 H106      -77.2422   26.2595  -76.0254 H         1 UNK         0.3020 
    107 H107      -75.8021   24.8369  -73.0971 H         1 UNK         0.1245 
    108 H108      -78.6699   25.5107  -73.2754 H         1 UNK         0.0781 
    109 H109      -77.7778   26.9612  -73.0501 H         1 UNK         0.0781 
    110 H110      -75.4437   26.5139  -70.8652 H         1 UNK         0.0836 
    111 H111      -76.4232   26.6616  -69.4264 H         1 UNK         0.0836 
    112 H112      -77.9986   24.2121  -74.8839 H         1 UNK         0.3022 
    113 H113      -76.1416   21.9642  -76.9195 H         1 UNK         0.0747 
    114 H114      -77.8397   20.3306  -76.1366 H         1 UNK         0.0793 
    115 H115      -76.6295   20.5873  -74.8914 H         1 UNK         0.0793 
    116 H116      -78.2104   21.3415  -74.7389 H         1 UNK         0.0793 
    117 H117      -78.9289   22.6053  -76.7631 H         1 UNK         0.3047 
    118 H118      -78.8631   25.6027  -78.6391 H         1 UNK         0.0822 
    119 H119      -80.3309   24.4028  -80.2341 H         1 UNK         0.0807 
    120 H120      -79.7725   22.8439  -79.6245 H         1 UNK         0.0807 
    121 H121      -78.6631   23.9121  -80.4724 H         1 UNK         0.0807 
    122 H122      -81.0644   24.0427  -77.8408 H         1 UNK         0.2946 
    123 H123      -82.4097   25.0073  -76.1545 H         1 UNK         0.1144 
    124 H124      -80.7290   23.2399  -74.2775 H         1 UNK         0.0793 
    125 H125      -81.5117   22.6929  -75.7556 H         1 UNK         0.0793 
    126 H126      -82.4861   23.2204  -74.3978 H         1 UNK         0.0793 
    127 H127      -81.6691   25.3676  -73.4267 H         1 UNK         0.2896 
@<TRIPOS>BOND
     1    1    2 1    
     2    1   67 1    
     3    1   68 1    
     4    1   69 1    
     5    2    3 2    
     6    2    4 am   BACKBONE|DICT|INTERRES
     7    4    5 1    
     8    4   70 1    
     9    5    6 1    
    10    5   65 1    
    11    5   71 1    
    12    6    7 1    
    13    6   72 1    
    14    6   73 1    
    15    7    8 1    
    16    8    9 1    
    17    8   74 1    
    18    8   75 1    
    19    9   10 ar   
    20    9   14 ar   
    21   10   11 ar   
    22   10   76 1    
    23   11   12 ar   
    24   11   48 1    
    25   12   13 ar   
    26   12   77 1    
    27   13   14 ar   
    28   13   15 1    
    29   14   78 1    
    30   15   16 1    
    31   15   79 1    
    32   15   80 1    
    33   16   17 1    
    34   17   18 1    
    35   17   81 1    
    36   17   82 1    
    37   18   19 1    
    38   18   22 1    
    39   18   83 1    
    40   19   20 am   BACKBONE|DICT|INTERRES
    41   19   21 2    
    42   20   84 1    
    43   20   85 1    
    44   22   23 am   BACKBONE|DICT|INTERRES
    45   22   86 1    
    46   23   24 2    
    47   23   25 1    
    48   25   26 1    
    49   25   27 1    
    50   25   87 1    
    51   26   88 1    
    52   26   89 1    
    53   26   90 1    
    54   27   28 am   BACKBONE|DICT|INTERRES
    55   27   91 1    
    56   28   29 2    
    57   28   30 1    
    58   30   31 1    
    59   30   32 1    
    60   30   92 1    
    61   31   93 1    
    62   31   94 1    
    63   31   95 1    
    64   32   33 am   BACKBONE|DICT|INTERRES
    65   32   96 1    
    66   33   34 2    
    67   33   35 1    
    68   35   36 1    
    69   35   37 1    
    70   35   97 1    
    71   36   98 1    
    72   36   99 1    
    73   36  100 1    
    74   37   38 am   BACKBONE|DICT|INTERRES
    75   37  101 1    
    76   38   39 2    
    77   38   40 1    
    78   40   41 1    
    79   40   42 1    
    80   40  102 1    
    81   41  103 1    
    82   41  104 1    
    83   41  105 1    
    84   42   43 am   BACKBONE|DICT|INTERRES
    85   42  106 1    
    86   43   44 2    
    87   43   45 1    
    88   45   46 1    
    89   45   49 1    
    90   45  107 1    
    91   46   47 1    
    92   46  108 1    
    93   46  109 1    
    94   47   48 1    
    95   48  110 1    
    96   48  111 1    
    97   49   50 am   BACKBONE|DICT|INTERRES
    98   49  112 1    
    99   50   51 2    
   100   50   52 1    
   101   52   53 1    
   102   52   54 1    
   103   52  113 1    
   104   53  114 1    
   105   53  115 1    
   106   53  116 1    
   107   54   55 am   BACKBONE|DICT|INTERRES
   108   54  117 1    
   109   55   56 2    
   110   55   57 1    
   111   57   58 1    
   112   57   59 1    
   113   57  118 1    
   114   58  119 1    
   115   58  120 1    
   116   58  121 1    
   117   59   60 am   BACKBONE|DICT|INTERRES
   118   59  122 1    
   119   60   61 2    
   120   60   62 1    
   121   62   63 1    
   122   62   64 1    
   123   62  123 1    
   124   63  124 1    
   125   63  125 1    
   126   63  126 1    
   127   64   65 am   BACKBONE|DICT|INTERRES
   128   64  127 1    
   129   65   66 2    
@<TRIPOS>SUBSTRUCTURE
     1 UNK         1 GROUP             0       ****    0 ROOT    
