@<TRIPOS>MOLECULE
3R135
127   129    1
SMALL
USER_CHARGES


@<TRIPOS>ATOM
      1 CA        -78.5145   30.6161  -69.2705 C.3       0 UNK        -0.1998 
      2 C         -79.4098   29.4035  -69.4756 C.2       0 UNK         0.4909 
      3 O         -80.0476   28.9447  -68.5276 O.2       0 UNK        -0.5240 
      4 N         -79.4607   28.8813  -70.7081 N.am      1 UNK        -0.4739 
      5 CA        -80.2610   27.7084  -71.0876 C.3       1 UNK         0.0864 
      6 C6        -80.4671   27.6305  -72.6209 C.3       11 UNK        -0.0881 
      7 S7        -81.6296   28.9057  -73.2171 S.3       11 UNK        -0.2682 
      8 C8        -80.5305   30.2480  -73.7766 C.3       11 UNK         0.0289 
      9 C9        -79.6686   29.8470  -74.9655 C.ar      11 UNK        -0.0687 
     10 C10       -80.2615   29.5513  -76.1968 C.ar      11 UNK        -0.0823 
     11 C11       -79.4760   29.1938  -77.2966 C.ar      11 UNK        -0.0830 
     12 C12       -78.0856   29.1589  -77.1648 C.ar      11 UNK        -0.1021 
     13 C13       -77.4836   29.4199  -75.9308 C.ar      11 UNK        -0.0753 
     14 C14       -78.2780   29.7786  -74.8381 C.ar      11 UNK        -0.0933 
     15 C15       -75.9777   29.2843  -75.7803 C.3       11 UNK         0.0166 
     16 S16       -75.5100   27.5476  -75.4991 S.3       11 UNK        -0.2615 
     17 C17       -75.7615   27.3609  -73.7005 C.3       11 UNK        -0.0865 
     18 CA        -74.4434   27.2852  -72.8853 C.3       10 UNK         0.0862 
     19 C         -73.7251   25.9144  -73.0377 C.2       10 UNK         0.5551 
     20 N         -72.7413   25.7755  -73.9172 N.am      10 UNK        -0.7319 
     21 O         -74.0529   24.9705  -72.3250 O.2       10 UNK        -0.5018 
     22 N         -73.5767   28.4561  -73.0939 N.am      10 UNK        -0.4509 
     23 C         -72.5896   28.8172  -72.2636 C.2       10 UNK         0.4899 
     24 O         -72.3241   28.2174  -71.2202 O.2       10 UNK        -0.4839 
     25 CA        -71.7658   30.0577  -72.6618 C.3       9 UNK         0.0222 
     26 CB        -70.7083   30.4338  -71.6060 C.3       9 UNK        -0.1966 
     27 N         -71.0988   29.8690  -73.9508 N.am      9 UNK        -0.4218 
     28 C         -71.6723   30.0474  -75.1460 C.2       9 UNK         0.5020 
     29 O         -72.8403   30.4195  -75.2841 O.2       9 UNK        -0.5274 
     30 CA        -70.8150   29.7751  -76.3998 C.3       8 UNK         0.0270 
     31 CB        -69.4962   29.0146  -76.1235 C.3       8 UNK        -0.1976 
     32 N         -71.6032   29.1059  -77.4410 N.am      8 UNK        -0.4313 
     33 C         -72.2021   27.9104  -77.3451 C.2       8 UNK         0.5041 
     34 O         -72.0702   27.1504  -76.3818 O.2       8 UNK        -0.5577 
     35 CA        -73.1375   27.5482  -78.5121 C.3       7 UNK         0.0284 
     36 CB        -72.3873   27.4228  -79.8563 C.3       7 UNK        -0.1958 
     37 N         -73.9652   26.3722  -78.2183 N.am      7 UNK        -0.4454 
     38 C         -73.6457   25.0706  -78.2557 C.2       7 UNK         0.5089 
     39 O         -72.5699   24.6262  -78.6592 O.2       7 UNK        -0.5125 
     40 CA        -74.7193   24.0750  -77.7623 C.3       6 UNK         0.0408 
     41 CB        -74.2523   23.3724  -76.4782 C.3       6 UNK        -0.1791 
     42 N         -76.0423   24.6698  -77.5240 N.am      6 UNK        -0.4762 
     43 C         -76.8881   25.0751  -78.4829 C.2       6 UNK         0.5007 
     44 O         -76.6506   24.9639  -79.6870 O.2       6 UNK        -0.5032 
     45 CA        -78.2076   25.7165  -78.0002 C.3       5 UNK         0.0783 
     46 C46       -79.0912   26.2302  -79.1723 C.3       11 UNK        -0.0857 
     47 S47       -80.6253   27.0672  -78.6372 S.3       11 UNK        -0.2512 
     48 C48       -80.1366   28.8238  -78.6157 C.3       11 UNK         0.0225 
     49 N         -78.9183   24.8589  -77.0474 N.am      5 UNK        -0.4615 
     50 C         -79.4235   23.6401  -77.2638 C.2       4 UNK         0.5053 
     51 O         -79.3251   23.0289  -78.3291 O.2       4 UNK        -0.5105 
     52 CA        -80.1543   23.0000  -76.0660 C.3       4 UNK         0.0263 
     53 CB        -80.8637   21.6845  -76.4395 C.3       4 UNK        -0.1981 
     54 N         -79.2537   22.7479  -74.9369 N.am      4 UNK        -0.4224 
     55 C         -78.7740   23.6760  -74.0996 C.2       3 UNK         0.4895 
     56 O         -79.0222   24.8828  -74.1893 O.2       3 UNK        -0.5091 
     57 CA        -77.8342   23.1755  -72.9992 C.3       3 UNK         0.0250 
     58 CB        -76.4271   22.9029  -73.5558 C.3       3 UNK        -0.1996 
     59 N         -77.7675   24.1971  -71.9622 N.am      3 UNK        -0.4254 
     60 C         -77.5396   23.9872  -70.6621 C.2       2 UNK         0.5004 
     61 O         -77.2753   22.8833  -70.1834 O.2       2 UNK        -0.5226 
     62 CA        -77.6336   25.2079  -69.7255 C.3       2 UNK         0.0269 
     63 CB        -76.2319   25.6608  -69.2856 C.3       2 UNK        -0.1926 
     64 N         -78.3527   26.3563  -70.2935 N.am      2 UNK        -0.4687 
     65 C         -79.6720   26.3898  -70.5413 C.2       1 UNK         0.5165 
     66 O         -80.4216   25.4323  -70.3459 O.2       1 UNK        -0.5079 
     67 H67       -79.1027   31.4589  -68.9083 H         1 UNK         0.0900 
     68 H68       -78.0197   30.9202  -70.1927 H         1 UNK         0.0900 
     69 H69       -77.7461   30.3939  -68.5305 H         1 UNK         0.0900 
     70 H70       -78.9249   29.3072  -71.4489 H         1 UNK         0.2959 
     71 H71       -81.2436   27.8094  -70.6201 H         1 UNK         0.1079 
     72 H72       -79.5175   27.6926  -73.1549 H         1 UNK         0.0837 
     73 H73       -80.8984   26.6673  -72.9027 H         1 UNK         0.0837 
     74 H74       -81.1457   31.1020  -74.0631 H         1 UNK         0.0685 
     75 H75       -79.9168   30.5871  -72.9418 H         1 UNK         0.0685 
     76 H76       -81.3385   29.5836  -76.2923 H         1 UNK         0.1434 
     77 H77       -77.4718   28.8863  -78.0124 H         1 UNK         0.1329 
     78 H78       -77.8133   29.9986  -73.8875 H         1 UNK         0.1335 
     79 H79       -75.4834   29.6394  -76.6858 H         1 UNK         0.0680 
     80 H80       -75.6069   29.9108  -74.9677 H         1 UNK         0.0680 
     81 H81       -76.3687   26.4697  -73.5312 H         1 UNK         0.1032 
     82 H82       -76.3641   28.1898  -73.3312 H         1 UNK         0.1032 
     83 H83       -74.7490   27.3317  -71.8387 H         1 UNK         0.0461 
     84 H84       -72.2713   24.8885  -73.9834 H         1 UNK         0.3453 
     85 H85       -72.5276   26.5023  -74.5949 H         1 UNK         0.3453 
     86 H86       -73.6915   28.9635  -73.9638 H         1 UNK         0.2984 
     87 H87       -72.4624   30.8953  -72.7384 H         1 UNK         0.0554 
     88 H88       -69.9718   29.6411  -71.4684 H         1 UNK         0.0847 
     89 H89       -71.1729   30.6187  -70.6364 H         1 UNK         0.0847 
     90 H90       -70.1750   31.3429  -71.8843 H         1 UNK         0.0847 
     91 H91       -70.1515   29.5204  -73.9235 H         1 UNK         0.3141 
     92 H92       -70.5514   30.7549  -76.8005 H         1 UNK         0.0743 
     93 H93       -69.6686   28.0539  -75.6365 H         1 UNK         0.0784 
     94 H94       -68.9581   28.8187  -77.0510 H         1 UNK         0.0784 
     95 H95       -68.8263   29.5960  -75.4890 H         1 UNK         0.0784 
     96 H96       -71.8057   29.6718  -78.2532 H         1 UNK         0.3213 
     97 H97       -73.8460   28.3729  -78.6060 H         1 UNK         0.0855 
     98 H98       -71.9771   28.3828  -80.1705 H         1 UNK         0.0814 
     99 H99       -73.0504   27.0824  -80.6517 H         1 UNK         0.0814 
    100 H100      -71.5517   26.7252  -79.7932 H         1 UNK         0.0814 
    101 H101      -74.8502   26.5870  -77.7819 H         1 UNK         0.3105 
    102 H102      -74.8268   23.3150  -78.5390 H         1 UNK         0.0547 
    103 H103      -74.9391   22.5776  -76.1898 H         1 UNK         0.0837 
    104 H104      -74.1688   24.0720  -75.6468 H         1 UNK         0.0837 
    105 H105      -73.2722   22.9134  -76.6149 H         1 UNK         0.0837 
    106 H106      -76.3104   24.8008  -76.5591 H         1 UNK         0.3020 
    107 H107      -77.9012   26.5811  -77.4167 H         1 UNK         0.1245 
    108 H108      -79.3803   25.3974  -79.8158 H         1 UNK         0.0781 
    109 H109      -78.5236   26.9118  -79.8082 H         1 UNK         0.0781 
    110 H110      -81.0286   29.4354  -78.7595 H         1 UNK         0.0836 
    111 H111      -79.4807   29.0484  -79.4580 H         1 UNK         0.0836 
    112 H112      -79.0246   25.2338  -76.1086 H         1 UNK         0.3022 
    113 H113      -80.9220   23.7075  -75.7444 H         1 UNK         0.0747 
    114 H114      -81.4337   21.2883  -75.5989 H         1 UNK         0.0793 
    115 H115      -81.5663   21.8393  -77.2596 H         1 UNK         0.0793 
    116 H116      -80.1556   20.9180  -76.7569 H         1 UNK         0.0793 
    117 H117      -78.9635   21.7889  -74.8093 H         1 UNK         0.3047 
    118 H118      -78.2517   22.2581  -72.5782 H         1 UNK         0.0822 
    119 H119      -75.7446   22.5790  -72.7697 H         1 UNK         0.0807 
    120 H120      -76.0015   23.7951  -74.0155 H         1 UNK         0.0807 
    121 H121      -76.4467   22.1164  -74.3105 H         1 UNK         0.0807 
    122 H122      -78.0506   25.1179  -72.2708 H         1 UNK         0.2946 
    123 H123      -78.1794   24.8812  -68.8372 H         1 UNK         0.1144 
    124 H124      -75.6937   24.8450  -68.8009 H         1 UNK         0.0793 
    125 H125      -76.2827   26.4825  -68.5710 H         1 UNK         0.0793 
    126 H126      -75.6288   25.9846  -70.1331 H         1 UNK         0.0793 
    127 H127      -77.8166   27.1953  -70.4588 H         1 UNK         0.2896 
@<TRIPOS>BOND
     1    1    2 1    
     2    1   67 1    
     3    1   68 1    
     4    1   69 1    
     5    2    3 2    
     6    2    4 am   BACKBONE|DICT|INTERRES
     7    4    5 1    
     8    4   70 1    
     9    5    6 1    
    10    5   65 1    
    11    5   71 1    
    12    6    7 1    
    13    6   72 1    
    14    6   73 1    
    15    7    8 1    
    16    8    9 1    
    17    8   74 1    
    18    8   75 1    
    19    9   10 ar   
    20    9   14 ar   
    21   10   11 ar   
    22   10   76 1    
    23   11   12 ar   
    24   11   48 1    
    25   12   13 ar   
    26   12   77 1    
    27   13   14 ar   
    28   13   15 1    
    29   14   78 1    
    30   15   16 1    
    31   15   79 1    
    32   15   80 1    
    33   16   17 1    
    34   17   18 1    
    35   17   81 1    
    36   17   82 1    
    37   18   19 1    
    38   18   22 1    
    39   18   83 1    
    40   19   20 am   BACKBONE|DICT|INTERRES
    41   19   21 2    
    42   20   84 1    
    43   20   85 1    
    44   22   23 am   BACKBONE|DICT|INTERRES
    45   22   86 1    
    46   23   24 2    
    47   23   25 1    
    48   25   26 1    
    49   25   27 1    
    50   25   87 1    
    51   26   88 1    
    52   26   89 1    
    53   26   90 1    
    54   27   28 am   BACKBONE|DICT|INTERRES
    55   27   91 1    
    56   28   29 2    
    57   28   30 1    
    58   30   31 1    
    59   30   32 1    
    60   30   92 1    
    61   31   93 1    
    62   31   94 1    
    63   31   95 1    
    64   32   33 am   BACKBONE|DICT|INTERRES
    65   32   96 1    
    66   33   34 2    
    67   33   35 1    
    68   35   36 1    
    69   35   37 1    
    70   35   97 1    
    71   36   98 1    
    72   36   99 1    
    73   36  100 1    
    74   37   38 am   BACKBONE|DICT|INTERRES
    75   37  101 1    
    76   38   39 2    
    77   38   40 1    
    78   40   41 1    
    79   40   42 1    
    80   40  102 1    
    81   41  103 1    
    82   41  104 1    
    83   41  105 1    
    84   42   43 am   BACKBONE|DICT|INTERRES
    85   42  106 1    
    86   43   44 2    
    87   43   45 1    
    88   45   46 1    
    89   45   49 1    
    90   45  107 1    
    91   46   47 1    
    92   46  108 1    
    93   46  109 1    
    94   47   48 1    
    95   48  110 1    
    96   48  111 1    
    97   49   50 am   BACKBONE|DICT|INTERRES
    98   49  112 1    
    99   50   51 2    
   100   50   52 1    
   101   52   53 1    
   102   52   54 1    
   103   52  113 1    
   104   53  114 1    
   105   53  115 1    
   106   53  116 1    
   107   54   55 am   BACKBONE|DICT|INTERRES
   108   54  117 1    
   109   55   56 2    
   110   55   57 1    
   111   57   58 1    
   112   57   59 1    
   113   57  118 1    
   114   58  119 1    
   115   58  120 1    
   116   58  121 1    
   117   59   60 am   BACKBONE|DICT|INTERRES
   118   59  122 1    
   119   60   61 2    
   120   60   62 1    
   121   62   63 1    
   122   62   64 1    
   123   62  123 1    
   124   63  124 1    
   125   63  125 1    
   126   63  126 1    
   127   64   65 am   BACKBONE|DICT|INTERRES
   128   64  127 1    
   129   65   66 2    
@<TRIPOS>SUBSTRUCTURE
     1 UNK         1 GROUP             0       ****    0 ROOT    
