@<TRIPOS>MOLECULE
3R135
127   129    1
SMALL
USER_CHARGES


@<TRIPOS>ATOM
      1 CA        -84.5660   24.8960  -72.1725 C.3       0 UNK        -0.1998 
      2 C         -83.5262   25.9106  -72.6225 C.2       0 UNK         0.4909 
      3 O         -83.8499   26.8286  -73.3776 O.2       0 UNK        -0.5240 
      4 N         -82.2744   25.7515  -72.1745 N.am      1 UNK        -0.4739 
      5 CA        -81.1367   26.6245  -72.4873 C.3       1 UNK         0.0864 
      6 C6        -80.0205   26.5151  -71.4155 C.3       11 UNK        -0.0881 
      7 S7        -80.4882   27.2650  -69.8206 S.3       11 UNK        -0.2682 
      8 C8        -80.3605   29.0557  -70.1690 C.3       11 UNK         0.0289 
      9 C9        -79.0636   29.4488  -70.8688 C.ar      11 UNK        -0.0687 
     10 C10       -79.0906   29.9477  -72.1769 C.ar      11 UNK        -0.0823 
     11 C11       -77.9063   30.3108  -72.8279 C.ar      11 UNK        -0.0830 
     12 C12       -76.6891   30.1738  -72.1538 C.ar      11 UNK        -0.1021 
     13 C13       -76.6470   29.6609  -70.8540 C.ar      11 UNK        -0.0753 
     14 C14       -77.8372   29.3081  -70.2120 C.ar      11 UNK        -0.0933 
     15 C15       -75.3080   29.4807  -70.1597 C.3       11 UNK         0.0166 
     16 S16       -74.4512   28.0174  -70.8173 S.3       11 UNK        -0.2615 
     17 C17       -72.7012   28.4240  -70.4861 C.3       11 UNK        -0.0865 
     18 CA        -72.1204   29.5399  -71.3999 C.3       10 UNK         0.0862 
     19 C         -70.5914   29.6905  -71.1721 C.2       10 UNK         0.5551 
     20 N         -70.1857   30.5167  -70.2176 N.am      10 UNK        -0.7319 
     21 O         -69.7770   29.0325  -71.8172 O.2       10 UNK        -0.5018 
     22 N         -72.4728   29.3335  -72.8104 N.am      10 UNK        -0.4509 
     23 C         -72.2983   30.2131  -73.8008 C.2       10 UNK         0.4899 
     24 O         -71.8091   31.3335  -73.6456 O.2       10 UNK        -0.4839 
     25 CA        -72.7619   29.7560  -75.1976 C.3       9 UNK         0.0222 
     26 CB        -72.6489   30.8670  -76.2578 C.3       9 UNK        -0.1966 
     27 N         -72.0375   28.5715  -75.6670 N.am      9 UNK        -0.4218 
     28 C         -72.2676   27.3177  -75.2591 C.2       9 UNK         0.5020 
     29 O         -73.0884   27.0199  -74.3896 O.2       9 UNK        -0.5274 
     30 CA        -71.4410   26.2122  -75.9181 C.3       8 UNK         0.0270 
     31 CB        -70.5432   25.4961  -74.8923 C.3       8 UNK        -0.1976 
     32 N         -72.3627   25.2650  -76.5371 N.am      8 UNK        -0.4313 
     33 C         -72.0808   24.5008  -77.5989 C.2       8 UNK         0.5041 
     34 O         -70.9770   24.4662  -78.1454 O.2       8 UNK        -0.5577 
     35 CA        -73.2251   23.6487  -78.1678 C.3       7 UNK         0.0284 
     36 CB        -73.4839   22.4071  -77.2972 C.3       7 UNK        -0.1958 
     37 N         -74.4531   24.4344  -78.3017 N.am      7 UNK        -0.4454 
     38 C         -74.7399   25.2089  -79.3577 C.2       7 UNK         0.5089 
     39 O         -74.0230   25.2944  -80.3557 O.2       7 UNK        -0.5125 
     40 CA        -76.0492   26.0204  -79.3146 C.3       6 UNK         0.0408 
     41 CB        -77.1692   25.2554  -80.0370 C.3       6 UNK        -0.1791 
     42 N         -76.4919   26.3603  -77.9603 N.am      6 UNK        -0.4762 
     43 C         -75.8549   27.2109  -77.1405 C.2       6 UNK         0.5007 
     44 O         -74.8583   27.8523  -77.4728 O.2       6 UNK        -0.5032 
     45 CA        -76.3936   27.3253  -75.6970 C.3       5 UNK         0.0783 
     46 C46       -77.4867   28.4181  -75.5726 C.3       11 UNK        -0.0857 
     47 S47       -76.7825   30.0905  -75.3995 S.3       11 UNK        -0.2512 
     48 C48       -77.9527   30.8837  -74.2425 C.3       11 UNK         0.0225 
     49 N         -76.8619   26.0429  -75.1610 N.am      5 UNK        -0.4615 
     50 C         -76.1340   24.9249  -75.0367 C.2       4 UNK         0.5053 
     51 O         -74.9714   24.8126  -75.4197 O.2       4 UNK        -0.5105 
     52 CA        -76.8422   23.7100  -74.4252 C.3       4 UNK         0.0263 
     53 CB        -76.9528   23.8528  -72.8980 C.3       4 UNK        -0.1981 
     54 N         -78.1728   23.5412  -75.0083 N.am      4 UNK        -0.4224 
     55 C         -78.4143   22.9139  -76.1678 C.2       3 UNK         0.4895 
     56 O         -77.5510   22.3331  -76.8261 O.2       3 UNK        -0.5091 
     57 CA        -79.8617   22.9472  -76.6934 C.3       3 UNK         0.0250 
     58 CB        -80.6589   21.7501  -76.1511 C.3       3 UNK        -0.1996 
     59 N         -80.5762   24.1884  -76.3788 N.am      3 UNK        -0.4254 
     60 C         -80.2445   25.3966  -76.8549 C.2       2 UNK         0.5004 
     61 O         -79.2989   25.5985  -77.6156 O.2       2 UNK        -0.5226 
     62 CA        -81.0757   26.5930  -76.3602 C.3       2 UNK         0.0269 
     63 CB        -82.3560   26.7398  -77.1973 C.3       2 UNK        -0.1926 
     64 N         -81.4272   26.5742  -74.9330 N.am      2 UNK        -0.4687 
     65 C         -80.5890   26.3696  -73.9074 C.2       1 UNK         0.5165 
     66 O         -79.4252   25.9966  -74.0525 O.2       1 UNK        -0.5079 
     67 H67       -84.9916   24.3867  -73.0368 H         1 UNK         0.0900 
     68 H68       -84.1406   24.1426  -71.5097 H         1 UNK         0.0900 
     69 H69       -85.3736   25.3983  -71.6408 H         1 UNK         0.0900 
     70 H70       -82.0664   24.9746  -71.5632 H         1 UNK         0.2959 
     71 H71       -81.4903   27.6573  -72.4948 H         1 UNK         0.1079 
     72 H72       -79.0915   26.9811  -71.7481 H         1 UNK         0.0837 
     73 H73       -79.7647   25.4684  -71.2416 H         1 UNK         0.0837 
     74 H74       -81.2250   29.3608  -70.7602 H         1 UNK         0.0685 
     75 H75       -80.4346   29.6004  -69.2269 H         1 UNK         0.0685 
     76 H76       -80.0374   30.0595  -72.6873 H         1 UNK         0.1434 
     77 H77       -75.7670   30.4501  -72.6473 H         1 UNK         0.1329 
     78 H78       -77.8115   28.9094  -69.2070 H         1 UNK         0.1335 
     79 H79       -74.7090   30.3782  -70.3119 H         1 UNK         0.0680 
     80 H80       -75.4348   29.3713  -69.0816 H         1 UNK         0.0680 
     81 H81       -72.5976   28.6992  -69.4348 H         1 UNK         0.1032 
     82 H82       -72.1304   27.5017  -70.6119 H         1 UNK         0.1032 
     83 H83       -72.5811   30.4855  -71.1102 H         1 UNK         0.0461 
     84 H84       -69.1976   30.6151  -70.0429 H         1 UNK         0.3453 
     85 H85       -70.8446   31.0541  -69.6758 H         1 UNK         0.3453 
     86 H86       -72.8492   28.4210  -73.0522 H         1 UNK         0.2984 
     87 H87       -73.8193   29.4987  -75.1116 H         1 UNK         0.0554 
     88 H88       -73.2126   31.7511  -75.9568 H         1 UNK         0.0847 
     89 H89       -73.0550   30.5401  -77.2156 H         1 UNK         0.0847 
     90 H90       -71.6148   31.1755  -76.4155 H         1 UNK         0.0847 
     91 H91       -71.3221   28.7318  -76.3615 H         1 UNK         0.3141 
     92 H92       -70.8094   26.6568  -76.6904 H         1 UNK         0.0743 
     93 H93       -71.1330   25.0050  -74.1170 H         1 UNK         0.0784 
     94 H94       -69.9204   24.7391  -75.3691 H         1 UNK         0.0784 
     95 H95       -69.8758   26.2029  -74.3974 H         1 UNK         0.0784 
     96 H96       -73.2966   25.2308  -76.1256 H         1 UNK         0.3213 
     97 H97       -72.9202   23.2969  -79.1561 H         1 UNK         0.0855 
     98 H98       -73.7547   22.6683  -76.2743 H         1 UNK         0.0814 
     99 H99       -72.5932   21.7798  -77.2449 H         1 UNK         0.0814 
    100 H100      -74.2877   21.7960  -77.7082 H         1 UNK         0.0814 
    101 H101      -75.0581   24.4722  -77.4900 H         1 UNK         0.3105 
    102 H102      -75.8742   26.9538  -79.8537 H         1 UNK         0.0547 
    103 H103      -76.8725   24.9902  -81.0526 H         1 UNK         0.0837 
    104 H104      -77.4246   24.3306  -79.5176 H         1 UNK         0.0837 
    105 H105      -78.0750   25.8572  -80.1124 H         1 UNK         0.0837 
    106 H106      -77.3527   25.9230  -77.6409 H         1 UNK         0.3020 
    107 H107      -75.5491   27.6106  -75.0666 H         1 UNK         0.1245 
    108 H108      -78.0968   28.2298  -74.6887 H         1 UNK         0.0781 
    109 H109      -78.1762   28.3987  -76.4184 H         1 UNK         0.0781 
    110 H110      -78.9582   30.8112  -74.6601 H         1 UNK         0.0836 
    111 H111      -77.7201   31.9480  -74.1904 H         1 UNK         0.0836 
    112 H112      -77.8155   26.0306  -74.8041 H         1 UNK         0.3022 
    113 H113      -76.2399   22.8238  -74.6378 H         1 UNK         0.0747 
    114 H114      -77.4240   22.9771  -72.4518 H         1 UNK         0.0793 
    115 H115      -75.9650   23.9556  -72.4466 H         1 UNK         0.0793 
    116 H116      -77.5331   24.7295  -72.6086 H         1 UNK         0.0793 
    117 H117      -78.9222   24.0692  -74.5769 H         1 UNK         0.3047 
    118 H118      -79.8133   22.8608  -77.7812 H         1 UNK         0.0822 
    119 H119      -81.6570   21.7068  -76.5874 H         1 UNK         0.0807 
    120 H120      -80.7666   21.7932  -75.0665 H         1 UNK         0.0807 
    121 H121      -80.1613   20.8094  -76.3919 H         1 UNK         0.0807 
    122 H122      -81.3603   24.1228  -75.7461 H         1 UNK         0.2946 
    123 H123      -80.4666   27.4843  -76.5217 H         1 UNK         0.1144 
    124 H124      -82.8863   27.6605  -76.9531 H         1 UNK         0.0793 
    125 H125      -83.0410   25.9063  -77.0369 H         1 UNK         0.0793 
    126 H126      -82.1259   26.7740  -78.2633 H         1 UNK         0.0793 
    127 H127      -82.3824   26.8259  -74.6939 H         1 UNK         0.2896 
@<TRIPOS>BOND
     1    1    2 1    
     2    1   67 1    
     3    1   68 1    
     4    1   69 1    
     5    2    3 2    
     6    2    4 am   BACKBONE|DICT|INTERRES
     7    4    5 1    
     8    4   70 1    
     9    5    6 1    
    10    5   65 1    
    11    5   71 1    
    12    6    7 1    
    13    6   72 1    
    14    6   73 1    
    15    7    8 1    
    16    8    9 1    
    17    8   74 1    
    18    8   75 1    
    19    9   10 ar   
    20    9   14 ar   
    21   10   11 ar   
    22   10   76 1    
    23   11   12 ar   
    24   11   48 1    
    25   12   13 ar   
    26   12   77 1    
    27   13   14 ar   
    28   13   15 1    
    29   14   78 1    
    30   15   16 1    
    31   15   79 1    
    32   15   80 1    
    33   16   17 1    
    34   17   18 1    
    35   17   81 1    
    36   17   82 1    
    37   18   19 1    
    38   18   22 1    
    39   18   83 1    
    40   19   20 am   BACKBONE|DICT|INTERRES
    41   19   21 2    
    42   20   84 1    
    43   20   85 1    
    44   22   23 am   BACKBONE|DICT|INTERRES
    45   22   86 1    
    46   23   24 2    
    47   23   25 1    
    48   25   26 1    
    49   25   27 1    
    50   25   87 1    
    51   26   88 1    
    52   26   89 1    
    53   26   90 1    
    54   27   28 am   BACKBONE|DICT|INTERRES
    55   27   91 1    
    56   28   29 2    
    57   28   30 1    
    58   30   31 1    
    59   30   32 1    
    60   30   92 1    
    61   31   93 1    
    62   31   94 1    
    63   31   95 1    
    64   32   33 am   BACKBONE|DICT|INTERRES
    65   32   96 1    
    66   33   34 2    
    67   33   35 1    
    68   35   36 1    
    69   35   37 1    
    70   35   97 1    
    71   36   98 1    
    72   36   99 1    
    73   36  100 1    
    74   37   38 am   BACKBONE|DICT|INTERRES
    75   37  101 1    
    76   38   39 2    
    77   38   40 1    
    78   40   41 1    
    79   40   42 1    
    80   40  102 1    
    81   41  103 1    
    82   41  104 1    
    83   41  105 1    
    84   42   43 am   BACKBONE|DICT|INTERRES
    85   42  106 1    
    86   43   44 2    
    87   43   45 1    
    88   45   46 1    
    89   45   49 1    
    90   45  107 1    
    91   46   47 1    
    92   46  108 1    
    93   46  109 1    
    94   47   48 1    
    95   48  110 1    
    96   48  111 1    
    97   49   50 am   BACKBONE|DICT|INTERRES
    98   49  112 1    
    99   50   51 2    
   100   50   52 1    
   101   52   53 1    
   102   52   54 1    
   103   52  113 1    
   104   53  114 1    
   105   53  115 1    
   106   53  116 1    
   107   54   55 am   BACKBONE|DICT|INTERRES
   108   54  117 1    
   109   55   56 2    
   110   55   57 1    
   111   57   58 1    
   112   57   59 1    
   113   57  118 1    
   114   58  119 1    
   115   58  120 1    
   116   58  121 1    
   117   59   60 am   BACKBONE|DICT|INTERRES
   118   59  122 1    
   119   60   61 2    
   120   60   62 1    
   121   62   63 1    
   122   62   64 1    
   123   62  123 1    
   124   63  124 1    
   125   63  125 1    
   126   63  126 1    
   127   64   65 am   BACKBONE|DICT|INTERRES
   128   64  127 1    
   129   65   66 2    
@<TRIPOS>SUBSTRUCTURE
     1 UNK         1 GROUP             0       ****    0 ROOT    
