@<TRIPOS>MOLECULE
3R135
127   129    1
SMALL
USER_CHARGES


@<TRIPOS>ATOM
      1 CA        -81.5151   25.5289  -70.1070 C.3       0 UNK        -0.1998 
      2 C         -82.4170   26.1556  -71.1594 C.2       0 UNK         0.4909 
      3 O         -83.5605   25.7288  -71.3201 O.2       0 UNK        -0.5240 
      4 N         -81.9114   27.1685  -71.8749 N.am      1 UNK        -0.4739 
      5 CA        -82.6079   27.8634  -72.9663 C.3       1 UNK         0.0864 
      6 C6        -81.9414   29.2237  -73.3041 C.3       11 UNK        -0.0881 
      7 S7        -80.1528   29.0995  -73.6661 S.3       11 UNK        -0.2682 
      8 C8        -79.4315   29.7316  -72.1195 C.3       11 UNK         0.0289 
      9 C9        -78.0412   29.1575  -71.9090 C.ar      11 UNK        -0.0687 
     10 C10       -77.8955   27.8875  -71.3466 C.ar      11 UNK        -0.0823 
     11 C11       -76.6294   27.3156  -71.1916 C.ar      11 UNK        -0.0830 
     12 C12       -75.5044   28.0592  -71.5616 C.ar      11 UNK        -0.1021 
     13 C13       -75.6252   29.3464  -72.0961 C.ar      11 UNK        -0.0753 
     14 C14       -76.9065   29.8851  -72.2777 C.ar      11 UNK        -0.0933 
     15 C15       -74.3381   30.1051  -72.4283 C.3       11 UNK         0.0166 
     16 S16       -74.5330   31.7128  -73.2785 S.3       11 UNK        -0.2615 
     17 C17       -74.8021   31.1897  -75.0104 C.3       11 UNK        -0.0865 
     18 CA        -73.5317   31.2983  -75.8977 C.3       10 UNK         0.0862 
     19 C         -73.1953   32.7714  -76.2745 C.2       10 UNK         0.5551 
     20 N         -72.0303   33.3006  -75.9216 N.am      10 UNK        -0.7319 
     21 O         -74.0043   33.4408  -76.9121 O.2       10 UNK        -0.5018 
     22 N         -72.4247   30.5243  -75.3186 N.am      10 UNK        -0.4509 
     23 C         -71.3630   30.0472  -75.9756 C.2       10 UNK         0.4899 
     24 O         -71.1487   30.2158  -77.1756 O.2       10 UNK        -0.4839 
     25 CA        -70.3961   29.2084  -75.1361 C.3       9 UNK         0.0222 
     26 CB        -69.9638   29.9456  -73.8475 C.3       9 UNK        -0.1966 
     27 N         -71.0296   27.9220  -74.8416 N.am      9 UNK        -0.4218 
     28 C         -70.4111   26.8567  -74.3100 C.2       9 UNK         0.5020 
     29 O         -69.2283   26.8535  -73.9650 O.2       9 UNK        -0.5274 
     30 CA        -71.2328   25.5641  -74.1308 C.3       8 UNK         0.0270 
     31 CB        -71.8377   25.5119  -72.7185 C.3       8 UNK        -0.1976 
     32 N         -72.2984   25.3949  -75.1219 N.am      8 UNK        -0.4313 
     33 C         -72.1004   25.2665  -76.4437 C.2       8 UNK         0.5041 
     34 O         -70.9834   25.1600  -76.9526 O.2       8 UNK        -0.5577 
     35 CA        -73.3340   25.2751  -77.3711 C.3       7 UNK         0.0284 
     36 CB        -73.6106   23.8561  -77.8961 C.3       7 UNK        -0.1958 
     37 N         -74.5641   25.8139  -76.7793 N.am      7 UNK        -0.4454 
     38 C         -74.7096   27.0188  -76.2089 C.2       7 UNK         0.5089 
     39 O         -73.8173   27.8638  -76.1610 O.2       7 UNK        -0.5125 
     40 CA        -76.0429   27.2999  -75.4954 C.3       6 UNK         0.0408 
     41 CB        -77.0262   28.0099  -76.4356 C.3       6 UNK        -0.1791 
     42 N         -76.6832   26.1150  -74.9175 N.am      6 UNK        -0.4762 
     43 C         -76.1274   25.2900  -74.0149 C.2       6 UNK         0.5007 
     44 O         -74.9557   25.3637  -73.6418 O.2       6 UNK        -0.5032 
     45 CA        -77.0342   24.1703  -73.4763 C.3       5 UNK         0.0783 
     46 C46       -78.1814   24.7317  -72.5918 C.3       11 UNK        -0.0857 
     47 S47       -77.8254   24.7462  -70.8008 S.3       11 UNK        -0.2512 
     48 C48       -76.4274   25.9144  -70.6103 C.3       11 UNK         0.0225 
     49 N         -77.5506   23.4039  -74.6094 N.am      5 UNK        -0.4615 
     50 C         -76.8680   22.4521  -75.2592 C.2       4 UNK         0.5053 
     51 O         -75.7765   22.0200  -74.8898 O.2       4 UNK        -0.5105 
     52 CA        -77.4991   21.8903  -76.5472 C.3       4 UNK         0.0263 
     53 CB        -78.2557   20.5864  -76.2489 C.3       4 UNK        -0.1981 
     54 N         -78.4041   22.8300  -77.2158 N.am      4 UNK        -0.4224 
     55 C         -78.0266   23.9881  -77.7764 C.2       3 UNK         0.4895 
     56 O         -76.8615   24.3776  -77.8277 O.2       3 UNK        -0.5091 
     57 CA        -79.1459   24.8909  -78.3213 C.3       3 UNK         0.0250 
     58 CB        -79.4822   24.5146  -79.7729 C.3       3 UNK        -0.1996 
     59 N         -80.3700   24.8757  -77.5115 N.am      3 UNK        -0.4254 
     60 C         -80.4392   25.2062  -76.2144 C.2       2 UNK         0.5004 
     61 O         -79.4608   25.5136  -75.5271 O.2       2 UNK        -0.5226 
     62 CA        -81.8210   25.1142  -75.5624 C.3       2 UNK         0.0269 
     63 CB        -82.0748   23.6838  -75.0593 C.3       2 UNK        -0.1926 
     64 N         -81.8674   26.0267  -74.4247 N.am      2 UNK        -0.4687 
     65 C         -82.7820   26.9824  -74.2240 C.2       1 UNK         0.5165 
     66 O         -83.7402   27.1806  -74.9729 O.2       1 UNK        -0.5079 
     67 H67       -81.2071   24.5325  -70.4225 H         1 UNK         0.0900 
     68 H68       -80.6188   26.1223  -69.9308 H         1 UNK         0.0900 
     69 H69       -82.0475   25.4377  -69.1609 H         1 UNK         0.0900 
     70 H70       -80.9654   27.4767  -71.7104 H         1 UNK         0.2959 
     71 H71       -83.6196   28.0795  -72.6150 H         1 UNK         0.1079 
     72 H72       -82.0933   29.9186  -72.4769 H         1 UNK         0.0837 
     73 H73       -82.4341   29.6905  -74.1594 H         1 UNK         0.0837 
     74 H74       -80.0629   29.4685  -71.2697 H         1 UNK         0.0685 
     75 H75       -79.4010   30.8217  -72.1545 H         1 UNK         0.0685 
     76 H76       -78.7756   27.3389  -71.0483 H         1 UNK         0.1434 
     77 H77       -74.5199   27.6311  -71.4284 H         1 UNK         0.1329 
     78 H78       -77.0360   30.8717  -72.6981 H         1 UNK         0.1335 
     79 H79       -73.6897   29.4605  -73.0229 H         1 UNK         0.0680 
     80 H80       -73.8085   30.2902  -71.4929 H         1 UNK         0.0680 
     81 H81       -75.6197   31.7786  -75.4303 H         1 UNK         0.1032 
     82 H82       -75.1614   30.1616  -75.0172 H         1 UNK         0.1032 
     83 H83       -73.7772   30.8172  -76.8465 H         1 UNK         0.0461 
     84 H84       -71.3628   32.7563  -75.4009 H         1 UNK         0.3453 
     85 H85       -71.8211   34.2529  -76.1756 H         1 UNK         0.3453 
     86 H86       -72.4938   30.3581  -74.3272 H         1 UNK         0.2984 
     87 H87       -69.5088   29.0230  -75.7447 H         1 UNK         0.0554 
     88 H88       -69.6352   30.9621  -74.0680 H         1 UNK         0.0847 
     89 H89       -69.1256   29.4441  -73.3643 H         1 UNK         0.0847 
     90 H90       -70.7707   30.0105  -73.1172 H         1 UNK         0.0847 
     91 H91       -71.9898   27.8236  -75.1637 H         1 UNK         0.3141 
     92 H92       -70.5464   24.7219  -74.2397 H         1 UNK         0.0743 
     93 H93       -71.0615   25.5951  -71.9565 H         1 UNK         0.0784 
     94 H94       -72.5460   26.3249  -72.5540 H         1 UNK         0.0784 
     95 H95       -72.3625   24.5721  -72.5454 H         1 UNK         0.0784 
     96 H96       -73.2519   25.4444  -74.7736 H         1 UNK         0.3213 
     97 H97       -73.0827   25.9128  -78.2208 H         1 UNK         0.0855 
     98 H98       -73.9568   23.1941  -77.1010 H         1 UNK         0.0814 
     99 H99       -72.7118   23.4110  -78.3253 H         1 UNK         0.0814 
    100 H100      -74.3677   23.8639  -78.6802 H         1 UNK         0.0814 
    101 H101      -75.3856   25.2177  -76.8344 H         1 UNK         0.3105 
    102 H102      -75.8283   27.9682  -74.6610 H         1 UNK         0.0547 
    103 H103      -77.9517   28.2689  -75.9204 H         1 UNK         0.0837 
    104 H104      -77.2796   27.3867  -77.2924 H         1 UNK         0.0837 
    105 H105      -76.5984   28.9360  -76.8216 H         1 UNK         0.0837 
    106 H106      -77.6556   25.9575  -75.1740 H         1 UNK         0.3020 
    107 H107      -76.4165   23.5041  -72.8691 H         1 UNK         0.1245 
    108 H108      -79.0649   24.1001  -72.6995 H         1 UNK         0.0781 
    109 H109      -78.5133   25.7195  -72.9150 H         1 UNK         0.0781 
    110 H110      -75.5373   25.4553  -71.0421 H         1 UNK         0.0836 
    111 H111      -76.2199   26.0192  -69.5448 H         1 UNK         0.0836 
    112 H112      -78.4082   23.7516  -75.0188 H         1 UNK         0.3022 
    113 H113      -76.6834   21.6646  -77.2373 H         1 UNK         0.0747 
    114 H114      -78.6373   20.1303  -77.1626 H         1 UNK         0.0793 
    115 H115      -77.6002   19.8552  -75.7739 H         1 UNK         0.0793 
    116 H116      -79.0988   20.7526  -75.5772 H         1 UNK         0.0793 
    117 H117      -79.3853   22.5931  -77.2229 H         1 UNK         0.3047 
    118 H118      -78.7690   25.9145  -78.3178 H         1 UNK         0.0822 
    119 H119      -80.1981   25.2118  -80.2086 H         1 UNK         0.0807 
    120 H120      -79.9029   23.5110  -79.8455 H         1 UNK         0.0807 
    121 H121      -78.5888   24.5393  -80.3987 H         1 UNK         0.0807 
    122 H122      -81.2199   24.6170  -77.9921 H         1 UNK         0.2946 
    123 H123      -82.5771   25.3816  -76.3034 H         1 UNK         0.1144 
    124 H124      -81.3185   23.3672  -74.3403 H         1 UNK         0.0793 
    125 H125      -82.0657   22.9680  -75.8821 H         1 UNK         0.0793 
    126 H126      -83.0475   23.6049  -74.5738 H         1 UNK         0.0793 
    127 H127      -81.0625   25.9992  -73.8150 H         1 UNK         0.2896 
@<TRIPOS>BOND
     1    1    2 1    
     2    1   67 1    
     3    1   68 1    
     4    1   69 1    
     5    2    3 2    
     6    2    4 am   BACKBONE|DICT|INTERRES
     7    4    5 1    
     8    4   70 1    
     9    5    6 1    
    10    5   65 1    
    11    5   71 1    
    12    6    7 1    
    13    6   72 1    
    14    6   73 1    
    15    7    8 1    
    16    8    9 1    
    17    8   74 1    
    18    8   75 1    
    19    9   10 ar   
    20    9   14 ar   
    21   10   11 ar   
    22   10   76 1    
    23   11   12 ar   
    24   11   48 1    
    25   12   13 ar   
    26   12   77 1    
    27   13   14 ar   
    28   13   15 1    
    29   14   78 1    
    30   15   16 1    
    31   15   79 1    
    32   15   80 1    
    33   16   17 1    
    34   17   18 1    
    35   17   81 1    
    36   17   82 1    
    37   18   19 1    
    38   18   22 1    
    39   18   83 1    
    40   19   20 am   BACKBONE|DICT|INTERRES
    41   19   21 2    
    42   20   84 1    
    43   20   85 1    
    44   22   23 am   BACKBONE|DICT|INTERRES
    45   22   86 1    
    46   23   24 2    
    47   23   25 1    
    48   25   26 1    
    49   25   27 1    
    50   25   87 1    
    51   26   88 1    
    52   26   89 1    
    53   26   90 1    
    54   27   28 am   BACKBONE|DICT|INTERRES
    55   27   91 1    
    56   28   29 2    
    57   28   30 1    
    58   30   31 1    
    59   30   32 1    
    60   30   92 1    
    61   31   93 1    
    62   31   94 1    
    63   31   95 1    
    64   32   33 am   BACKBONE|DICT|INTERRES
    65   32   96 1    
    66   33   34 2    
    67   33   35 1    
    68   35   36 1    
    69   35   37 1    
    70   35   97 1    
    71   36   98 1    
    72   36   99 1    
    73   36  100 1    
    74   37   38 am   BACKBONE|DICT|INTERRES
    75   37  101 1    
    76   38   39 2    
    77   38   40 1    
    78   40   41 1    
    79   40   42 1    
    80   40  102 1    
    81   41  103 1    
    82   41  104 1    
    83   41  105 1    
    84   42   43 am   BACKBONE|DICT|INTERRES
    85   42  106 1    
    86   43   44 2    
    87   43   45 1    
    88   45   46 1    
    89   45   49 1    
    90   45  107 1    
    91   46   47 1    
    92   46  108 1    
    93   46  109 1    
    94   47   48 1    
    95   48  110 1    
    96   48  111 1    
    97   49   50 am   BACKBONE|DICT|INTERRES
    98   49  112 1    
    99   50   51 2    
   100   50   52 1    
   101   52   53 1    
   102   52   54 1    
   103   52  113 1    
   104   53  114 1    
   105   53  115 1    
   106   53  116 1    
   107   54   55 am   BACKBONE|DICT|INTERRES
   108   54  117 1    
   109   55   56 2    
   110   55   57 1    
   111   57   58 1    
   112   57   59 1    
   113   57  118 1    
   114   58  119 1    
   115   58  120 1    
   116   58  121 1    
   117   59   60 am   BACKBONE|DICT|INTERRES
   118   59  122 1    
   119   60   61 2    
   120   60   62 1    
   121   62   63 1    
   122   62   64 1    
   123   62  123 1    
   124   63  124 1    
   125   63  125 1    
   126   63  126 1    
   127   64   65 am   BACKBONE|DICT|INTERRES
   128   64  127 1    
   129   65   66 2    
@<TRIPOS>SUBSTRUCTURE
     1 UNK         1 GROUP             0       ****    0 ROOT    
