@<TRIPOS>MOLECULE
3R135
127   129    1
SMALL
USER_CHARGES


@<TRIPOS>ATOM
      1 CA        -80.1830   21.6344  -72.6570 C.3       0 UNK        -0.1998 
      2 C         -80.9559   22.9403  -72.7598 C.2       0 UNK         0.4909 
      3 O         -81.6801   23.1467  -73.7348 O.2       0 UNK        -0.5240 
      4 N         -80.8049   23.8257  -71.7642 N.am      1 UNK        -0.4739 
      5 CA        -81.3956   25.1687  -71.7329 C.3       1 UNK         0.0864 
      6 C6        -81.1469   25.8546  -70.3646 C.3       11 UNK        -0.0881 
      7 S7        -82.0031   27.4631  -70.1858 S.3       11 UNK        -0.2682 
      8 C8        -80.6930   28.5595  -69.5361 C.3       11 UNK         0.0289 
      9 C9        -79.4664   28.6148  -70.4381 C.ar      11 UNK        -0.0687 
     10 C10       -79.5476   29.1884  -71.7097 C.ar      11 UNK        -0.0823 
     11 C11       -78.4452   29.1686  -72.5688 C.ar      11 UNK        -0.0830 
     12 C12       -77.2521   28.5797  -72.1347 C.ar      11 UNK        -0.1021 
     13 C13       -77.1372   28.0406  -70.8471 C.ar      11 UNK        -0.0753 
     14 C14       -78.2545   28.0658  -70.0080 C.ar      11 UNK        -0.0933 
     15 C15       -75.8588   27.3781  -70.3232 C.3       11 UNK         0.0166 
     16 S16       -74.3860   27.4606  -71.4040 S.3       11 UNK        -0.2615 
     17 C17       -73.9183   29.2204  -71.2761 C.3       11 UNK        -0.0865 
     18 CA        -73.7187   29.8927  -72.6593 C.3       10 UNK         0.0862 
     19 C         -73.3966   31.4010  -72.4744 C.2       10 UNK         0.5551 
     20 N         -74.3835   32.2713  -72.6366 N.am      10 UNK        -0.7319 
     21 O         -72.2747   31.7766  -72.1396 O.2       10 UNK        -0.5018 
     22 N         -72.7201   29.1712  -73.4637 N.am      10 UNK        -0.4509 
     23 C         -72.3236   29.4944  -74.7020 C.2       10 UNK         0.4899 
     24 O         -72.7726   30.4367  -75.3528 O.2       10 UNK        -0.4839 
     25 CA        -71.2578   28.5906  -75.3271 C.3       9 UNK         0.0222 
     26 CB        -69.8837   28.8845  -74.6846 C.3       9 UNK        -0.1966 
     27 N         -71.6450   27.1823  -75.1918 N.am      9 UNK        -0.4218 
     28 C         -70.9732   26.1356  -75.6880 C.2       9 UNK         0.5020 
     29 O         -69.9419   26.2289  -76.3551 O.2       9 UNK        -0.5274 
     30 CA        -71.5477   24.7428  -75.4066 C.3       8 UNK         0.0270 
     31 CB        -71.9744   24.5504  -73.9366 C.3       8 UNK        -0.1976 
     32 N         -72.6766   24.4919  -76.3024 N.am      8 UNK        -0.4313 
     33 C         -72.6954   23.5423  -77.2474 C.2       8 UNK         0.5041 
     34 O         -71.7664   22.7579  -77.4492 O.2       8 UNK        -0.5577 
     35 CA        -73.9584   23.4138  -78.1151 C.3       7 UNK         0.0284 
     36 CB        -74.9298   22.3888  -77.5071 C.3       7 UNK        -0.1958 
     37 N         -74.6649   24.6742  -78.3537 N.am      7 UNK        -0.4454 
     38 C         -74.2432   25.6296  -79.1947 C.2       7 UNK         0.5089 
     39 O         -73.1564   25.6045  -79.7723 O.2       7 UNK        -0.5125 
     40 CA        -75.2063   26.7983  -79.4550 C.3       6 UNK         0.0408 
     41 CB        -76.3535   26.3623  -80.3818 C.3       6 UNK        -0.1791 
     42 N         -75.7576   27.3140  -78.2027 N.am      6 UNK        -0.4762 
     43 C         -75.2607   28.3656  -77.5343 C.2       6 UNK         0.5007 
     44 O         -74.3472   29.0699  -77.9638 O.2       6 UNK        -0.5032 
     45 CA        -75.8594   28.6801  -76.1445 C.3       5 UNK         0.0783 
     46 C46       -76.8493   29.8695  -76.2126 C.3       11 UNK        -0.0857 
     47 S47       -77.1275   30.6250  -74.5744 S.3       11 UNK        -0.2512 
     48 C48       -78.5868   29.7042  -73.9893 C.3       11 UNK         0.0225 
     49 N         -76.4491   27.4902  -75.5175 N.am      5 UNK        -0.4615 
     50 C         -75.7320   26.4435  -75.0867 C.2       4 UNK         0.5053 
     51 O         -74.5013   26.4243  -75.0931 O.2       4 UNK        -0.5105 
     52 CA        -76.4948   25.1787  -74.6545 C.3       4 UNK         0.0263 
     53 CB        -76.5258   25.0269  -73.1291 C.3       4 UNK        -0.1981 
     54 N         -77.8580   25.0946  -75.1889 N.am      4 UNK        -0.4224 
     55 C         -78.1417   24.8764  -76.4823 C.2       3 UNK         0.4895 
     56 O         -77.2762   24.7974  -77.3538 O.2       3 UNK        -0.5091 
     57 CA        -79.6186   24.7412  -76.8921 C.3       3 UNK         0.0250 
     58 CB        -80.0242   23.2598  -76.9290 C.3       3 UNK        -0.1996 
     59 N         -80.5392   25.4770  -76.0244 N.am      3 UNK        -0.4254 
     60 C         -80.5879   26.8139  -75.9355 C.2       2 UNK         0.5004 
     61 O         -79.8980   27.5667  -76.6237 O.2       2 UNK        -0.5226 
     62 CA        -81.5324   27.4207  -74.8792 C.3       2 UNK         0.0269 
     63 CB        -82.8690   27.8163  -75.5260 C.3       2 UNK        -0.1926 
     64 N         -81.7967   26.5727  -73.7097 N.am      2 UNK        -0.4687 
     65 C         -80.8725   26.0052  -72.9197 C.2       1 UNK         0.5165 
     66 O         -79.6590   26.0804  -73.1180 O.2       1 UNK        -0.5079 
     67 H67       -80.8701   20.7891  -72.6810 H         1 UNK         0.0900 
     68 H68       -79.4958   21.5398  -73.4973 H         1 UNK         0.0900 
     69 H69       -79.6032   21.5747  -71.7361 H         1 UNK         0.0900 
     70 H70       -80.1775   23.6075  -71.0037 H         1 UNK         0.2959 
     71 H71       -82.4739   25.0410  -71.8514 H         1 UNK         0.1079 
     72 H72       -80.0765   25.9702  -70.1925 H         1 UNK         0.0837 
     73 H73       -81.5050   25.2086  -69.5615 H         1 UNK         0.0837 
     74 H74       -81.0991   29.5657  -69.4236 H         1 UNK         0.0685 
     75 H75       -80.4218   28.2260  -68.5332 H         1 UNK         0.0685 
     76 H76       -80.4872   29.6071  -72.0431 H         1 UNK         0.1434 
     77 H77       -76.4231   28.5219  -72.8210 H         1 UNK         0.1329 
     78 H78       -78.1875   27.6265  -69.0220 H         1 UNK         0.1335 
     79 H79       -76.0754   26.3243  -70.1429 H         1 UNK         0.0680 
     80 H80       -75.6017   27.8077  -69.3538 H         1 UNK         0.0680 
     81 H81       -73.0053   29.2878  -70.6813 H         1 UNK         0.1032 
     82 H82       -74.6857   29.7523  -70.7098 H         1 UNK         0.1032 
     83 H83       -74.6548   29.8201  -73.2105 H         1 UNK         0.0461 
     84 H84       -75.3035   31.9665  -72.9173 H         1 UNK         0.3453 
     85 H85       -74.1989   33.2533  -72.5051 H         1 UNK         0.3453 
     86 H86       -72.2769   28.3923  -73.0002 H         1 UNK         0.2984 
     87 H87       -71.2066   28.8238  -76.3927 H         1 UNK         0.0554 
     88 H88       -69.6743   29.9553  -74.6822 H         1 UNK         0.0847 
     89 H89       -69.0693   28.4090  -75.2301 H         1 UNK         0.0847 
     90 H90       -69.8375   28.5418  -73.6504 H         1 UNK         0.0847 
     91 H91       -72.5569   27.0085  -74.7770 H         1 UNK         0.3141 
     92 H92       -70.7412   24.0313  -75.5960 H         1 UNK         0.0743 
     93 H93       -72.8094   25.1866  -73.6461 H         1 UNK         0.0784 
     94 H94       -72.2721   23.5183  -73.7515 H         1 UNK         0.0784 
     95 H95       -71.1474   24.7721  -73.2608 H         1 UNK         0.0784 
     96 H96       -73.4674   25.1209  -76.2052 H         1 UNK         0.3213 
     97 H97       -73.6400   23.0274  -79.0861 H         1 UNK         0.0855 
     98 H98       -75.2852   22.6973  -76.5249 H         1 UNK         0.0814 
     99 H99       -74.4462   21.4184  -77.3866 H         1 UNK         0.0814 
    100 H100      -75.8007   22.2390  -78.1457 H         1 UNK         0.0814 
    101 H101      -75.6000   24.7525  -77.9556 H         1 UNK         0.3105 
    102 H102      -74.6490   27.5827  -79.9718 H         1 UNK         0.0547 
    103 H103      -75.9657   25.9804  -81.3271 H         1 UNK         0.0837 
    104 H104      -76.9636   25.5744  -79.9390 H         1 UNK         0.0837 
    105 H105      -77.0103   27.1997  -80.6170 H         1 UNK         0.0837 
    106 H106      -76.4893   26.7621  -77.7721 H         1 UNK         0.3020 
    107 H107      -75.0168   28.9875  -75.5252 H         1 UNK         0.1245 
    108 H108      -76.4505   30.6624  -76.8489 H         1 UNK         0.0781 
    109 H109      -77.7973   29.5730  -76.6657 H         1 UNK         0.0781 
    110 H110      -78.7673   28.8516  -74.6390 H         1 UNK         0.0836 
    111 H111      -79.4594   30.3533  -74.0761 H         1 UNK         0.0836 
    112 H112      -77.4569   27.4285  -75.5053 H         1 UNK         0.3022 
    113 H113      -75.9340   24.3302  -75.0477 H         1 UNK         0.0747 
    114 H114      -77.0007   24.0918  -72.8325 H         1 UNK         0.0793 
    115 H115      -75.5160   25.0218  -72.7176 H         1 UNK         0.0793 
    116 H116      -77.0716   25.8406  -72.6552 H         1 UNK         0.0793 
    117 H117      -78.6139   25.2410  -74.5239 H         1 UNK         0.3047 
    118 H118      -79.7136   25.1464  -77.9018 H         1 UNK         0.0822 
    119 H119      -81.0467   23.1362  -77.2862 H         1 UNK         0.0807 
    120 H120      -79.9550   22.7973  -75.9437 H         1 UNK         0.0807 
    121 H121      -79.3763   22.6945  -77.6006 H         1 UNK         0.0807 
    122 H122      -81.1221   24.9299  -75.4037 H         1 UNK         0.2946 
    123 H123      -81.0582   28.3296  -74.5087 H         1 UNK         0.1144 
    124 H124      -82.7097   28.4711  -76.3841 H         1 UNK         0.0793 
    125 H125      -83.5063   28.3561  -74.8251 H         1 UNK         0.0793 
    126 H126      -83.4198   26.9438  -75.8797 H         1 UNK         0.0793 
    127 H127      -82.7700   26.4358  -73.4770 H         1 UNK         0.2896 
@<TRIPOS>BOND
     1    1    2 1    
     2    1   67 1    
     3    1   68 1    
     4    1   69 1    
     5    2    3 2    
     6    2    4 am   BACKBONE|DICT|INTERRES
     7    4    5 1    
     8    4   70 1    
     9    5    6 1    
    10    5   65 1    
    11    5   71 1    
    12    6    7 1    
    13    6   72 1    
    14    6   73 1    
    15    7    8 1    
    16    8    9 1    
    17    8   74 1    
    18    8   75 1    
    19    9   10 ar   
    20    9   14 ar   
    21   10   11 ar   
    22   10   76 1    
    23   11   12 ar   
    24   11   48 1    
    25   12   13 ar   
    26   12   77 1    
    27   13   14 ar   
    28   13   15 1    
    29   14   78 1    
    30   15   16 1    
    31   15   79 1    
    32   15   80 1    
    33   16   17 1    
    34   17   18 1    
    35   17   81 1    
    36   17   82 1    
    37   18   19 1    
    38   18   22 1    
    39   18   83 1    
    40   19   20 am   BACKBONE|DICT|INTERRES
    41   19   21 2    
    42   20   84 1    
    43   20   85 1    
    44   22   23 am   BACKBONE|DICT|INTERRES
    45   22   86 1    
    46   23   24 2    
    47   23   25 1    
    48   25   26 1    
    49   25   27 1    
    50   25   87 1    
    51   26   88 1    
    52   26   89 1    
    53   26   90 1    
    54   27   28 am   BACKBONE|DICT|INTERRES
    55   27   91 1    
    56   28   29 2    
    57   28   30 1    
    58   30   31 1    
    59   30   32 1    
    60   30   92 1    
    61   31   93 1    
    62   31   94 1    
    63   31   95 1    
    64   32   33 am   BACKBONE|DICT|INTERRES
    65   32   96 1    
    66   33   34 2    
    67   33   35 1    
    68   35   36 1    
    69   35   37 1    
    70   35   97 1    
    71   36   98 1    
    72   36   99 1    
    73   36  100 1    
    74   37   38 am   BACKBONE|DICT|INTERRES
    75   37  101 1    
    76   38   39 2    
    77   38   40 1    
    78   40   41 1    
    79   40   42 1    
    80   40  102 1    
    81   41  103 1    
    82   41  104 1    
    83   41  105 1    
    84   42   43 am   BACKBONE|DICT|INTERRES
    85   42  106 1    
    86   43   44 2    
    87   43   45 1    
    88   45   46 1    
    89   45   49 1    
    90   45  107 1    
    91   46   47 1    
    92   46  108 1    
    93   46  109 1    
    94   47   48 1    
    95   48  110 1    
    96   48  111 1    
    97   49   50 am   BACKBONE|DICT|INTERRES
    98   49  112 1    
    99   50   51 2    
   100   50   52 1    
   101   52   53 1    
   102   52   54 1    
   103   52  113 1    
   104   53  114 1    
   105   53  115 1    
   106   53  116 1    
   107   54   55 am   BACKBONE|DICT|INTERRES
   108   54  117 1    
   109   55   56 2    
   110   55   57 1    
   111   57   58 1    
   112   57   59 1    
   113   57  118 1    
   114   58  119 1    
   115   58  120 1    
   116   58  121 1    
   117   59   60 am   BACKBONE|DICT|INTERRES
   118   59  122 1    
   119   60   61 2    
   120   60   62 1    
   121   62   63 1    
   122   62   64 1    
   123   62  123 1    
   124   63  124 1    
   125   63  125 1    
   126   63  126 1    
   127   64   65 am   BACKBONE|DICT|INTERRES
   128   64  127 1    
   129   65   66 2    
@<TRIPOS>SUBSTRUCTURE
     1 UNK         1 GROUP             0       ****    0 ROOT    
