@<TRIPOS>MOLECULE
3R135
127   129    1
SMALL
USER_CHARGES


@<TRIPOS>ATOM
      1 CA        -84.3816   29.6207  -77.3348 C.3       0 UNK        -0.1998 
      2 C         -83.1761   28.7128  -77.1417 C.2       0 UNK         0.4909 
      3 O         -82.9221   27.8451  -77.9784 O.2       0 UNK        -0.5240 
      4 N         -82.4267   28.9121  -76.0508 N.am      1 UNK        -0.4739 
      5 CA        -81.2777   28.0892  -75.6607 C.3       1 UNK         0.0864 
      6 C6        -80.3044   28.8665  -74.7380 C.3       11 UNK        -0.0881 
      7 S7        -81.0738   29.5555  -73.2317 S.3       11 UNK        -0.2682 
      8 C8        -79.7361   30.6377  -72.6095 C.3       11 UNK         0.0289 
      9 C9        -78.4606   29.9178  -72.1632 C.ar      11 UNK        -0.0687 
     10 C10       -78.4715   28.5826  -71.7415 C.ar      11 UNK        -0.0823 
     11 C11       -77.2952   27.9561  -71.3276 C.ar      11 UNK        -0.0830 
     12 C12       -76.1047   28.6803  -71.2895 C.ar      11 UNK        -0.1021 
     13 C13       -76.0644   30.0075  -71.7220 C.ar      11 UNK        -0.0753 
     14 C14       -77.2486   30.6203  -72.1516 C.ar      11 UNK        -0.0933 
     15 C15       -74.7479   30.7789  -71.7205 C.3       11 UNK         0.0166 
     16 S16       -73.4853   30.0185  -72.8019 S.3       11 UNK        -0.2615 
     17 C17       -72.6623   28.8364  -71.6747 C.3       11 UNK        -0.0865 
     18 CA        -71.1511   28.6528  -71.9973 C.3       10 UNK         0.0862 
     19 C         -70.3791   27.9007  -70.8680 C.2       10 UNK         0.5551 
     20 N         -69.3491   27.1227  -71.1784 N.am      10 UNK        -0.7319 
     21 O         -70.6923   28.0490  -69.6891 O.2       10 UNK        -0.5018 
     22 N         -70.9222   28.1257  -73.3562 N.am      10 UNK        -0.4509 
     23 C         -71.3043   26.9270  -73.8171 C.2       10 UNK         0.4899 
     24 O         -71.9114   26.0860  -73.1525 O.2       10 UNK        -0.4839 
     25 CA        -70.9804   26.6526  -75.2920 C.3       9 UNK         0.0222 
     26 CB        -71.1240   25.1673  -75.6726 C.3       9 UNK        -0.1966 
     27 N         -71.8778   27.4489  -76.1239 N.am      9 UNK        -0.4218 
     28 C         -71.6081   28.6757  -76.5881 C.2       9 UNK         0.5020 
     29 O         -70.5398   29.2591  -76.3974 O.2       9 UNK        -0.5274 
     30 CA        -72.7191   29.3799  -77.3735 C.3       8 UNK         0.0270 
     31 CB        -72.9062   28.7422  -78.7612 C.3       8 UNK        -0.1976 
     32 N         -73.9832   29.3313  -76.6399 N.am      8 UNK        -0.4313 
     33 C         -74.7655   30.3863  -76.3760 C.2       8 UNK         0.5041 
     34 O         -74.4842   31.5419  -76.7014 O.2       8 UNK        -0.5577 
     35 CA        -76.0894   30.1023  -75.6305 C.3       7 UNK         0.0284 
     36 CB        -77.1572   31.1898  -75.8717 C.3       7 UNK        -0.1958 
     37 N         -76.6251   28.7567  -75.8837 N.am      7 UNK        -0.4454 
     38 C         -76.9534   28.2283  -77.0731 C.2       7 UNK         0.5089 
     39 O         -77.0308   28.8827  -78.1133 O.2       7 UNK        -0.5125 
     40 CA        -77.2068   26.7051  -77.1230 C.3       6 UNK         0.0408 
     41 CB        -76.6620   26.0802  -78.4236 C.3       6 UNK        -0.1791 
     42 N         -76.7179   25.9368  -75.9664 N.am      6 UNK        -0.4762 
     43 C         -75.4687   25.8681  -75.4820 C.2       6 UNK         0.5007 
     44 O         -74.5362   26.5463  -75.9195 O.2       6 UNK        -0.5032 
     45 CA        -75.2102   24.8935  -74.3191 C.3       5 UNK         0.0783 
     46 C46       -75.5106   25.5271  -72.9328 C.3       11 UNK        -0.0857 
     47 S47       -77.2753   25.4553  -72.4528 S.3       11 UNK        -0.2512 
     48 C48       -77.3092   26.4850  -70.9558 C.3       11 UNK         0.0225 
     49 N         -75.8896   23.6044  -74.5042 N.am      5 UNK        -0.4615 
     50 C         -75.3693   22.4307  -74.1234 C.2       4 UNK         0.5053 
     51 O         -74.1992   22.2941  -73.7638 O.2       4 UNK        -0.5105 
     52 CA        -76.2949   21.1984  -74.0791 C.3       4 UNK         0.0263 
     53 CB        -76.5703   20.7973  -72.6196 C.3       4 UNK        -0.1981 
     54 N         -77.5788   21.3854  -74.7565 N.am      4 UNK        -0.4224 
     55 C         -77.7597   21.3214  -76.0810 C.2       3 UNK         0.4895 
     56 O         -76.8567   21.0759  -76.8816 O.2       3 UNK        -0.5091 
     57 CA        -79.1855   21.5709  -76.6130 C.3       3 UNK         0.0250 
     58 CB        -79.8740   20.2333  -76.9318 C.3       3 UNK        -0.1996 
     59 N         -80.0727   22.3723  -75.7539 N.am      3 UNK        -0.4254 
     60 C         -79.8158   23.6149  -75.3259 C.2       2 UNK         0.5004 
     61 O         -78.7188   24.1648  -75.4441 O.2       2 UNK        -0.5226 
     62 CA        -80.9595   24.3859  -74.6606 C.3       2 UNK         0.0269 
     63 CB        -80.9611   24.1923  -73.1346 C.3       2 UNK        -0.1926 
     64 N         -80.7648   25.7925  -74.9996 N.am      2 UNK        -0.4687 
     65 C         -81.7157   26.7280  -75.0709 C.2       1 UNK         0.5165 
     66 O         -82.8822   26.5404  -74.7127 O.2       1 UNK        -0.5079 
     67 H67       -85.2956   29.0283  -77.3660 H         1 UNK         0.0900 
     68 H68       -84.2952   30.1649  -78.2749 H         1 UNK         0.0900 
     69 H69       -84.4767   30.3485  -76.5291 H         1 UNK         0.0900 
     70 H70       -82.6979   29.6127  -75.3752 H         1 UNK         0.2959 
     71 H71       -80.7267   27.8561  -76.5753 H         1 UNK         0.1079 
     72 H72       -79.4536   28.2447  -74.4540 H         1 UNK         0.0837 
     73 H73       -79.8839   29.6959  -75.3059 H         1 UNK         0.0837 
     74 H74       -79.5016   31.3737  -73.3795 H         1 UNK         0.0685 
     75 H75       -80.1224   31.1994  -71.7583 H         1 UNK         0.0685 
     76 H76       -79.3898   28.0129  -71.7464 H         1 UNK         0.1434 
     77 H77       -75.2059   28.1964  -70.9423 H         1 UNK         0.1329 
     78 H78       -77.2286   31.6514  -72.4771 H         1 UNK         0.1335 
     79 H79       -74.9126   31.7993  -72.0699 H         1 UNK         0.0680 
     80 H80       -74.3752   30.8688  -70.6997 H         1 UNK         0.0680 
     81 H81       -73.1735   27.8755  -71.7259 H         1 UNK         0.1032 
     82 H82       -72.7898   29.1935  -70.6518 H         1 UNK         0.1032 
     83 H83       -70.7052   29.6480  -72.0011 H         1 UNK         0.0461 
     84 H84       -68.8475   26.6491  -70.4436 H         1 UNK         0.3453 
     85 H85       -69.0730   27.0020  -72.1394 H         1 UNK         0.3453 
     86 H86       -70.4523   28.7526  -73.9958 H         1 UNK         0.2984 
     87 H87       -69.9416   26.9393  -75.4692 H         1 UNK         0.0554 
     88 H88       -70.8165   24.9942  -76.7039 H         1 UNK         0.0847 
     89 H89       -72.1496   24.8144  -75.5700 H         1 UNK         0.0847 
     90 H90       -70.4974   24.5391  -75.0382 H         1 UNK         0.0847 
     91 H91       -72.8120   27.0657  -76.2492 H         1 UNK         0.3141 
     92 H92       -72.4028   30.4154  -77.5155 H         1 UNK         0.0743 
     93 H93       -71.9720   28.7489  -79.3243 H         1 UNK         0.0784 
     94 H94       -73.2414   27.7065  -78.6917 H         1 UNK         0.0784 
     95 H95       -73.6435   29.2903  -79.3482 H         1 UNK         0.0784 
     96 H96       -74.2870   28.4163  -76.3188 H         1 UNK         0.3213 
     97 H97       -75.8364   30.1273  -74.5722 H         1 UNK         0.0855 
     98 H98       -76.7811   32.1762  -75.5979 H         1 UNK         0.0814 
     99 H99       -78.0424   31.0132  -75.2659 H         1 UNK         0.0814 
    100 H100      -77.4631   31.2373  -76.9168 H         1 UNK         0.0814 
    101 H101      -76.5991   28.1237  -75.0966 H         1 UNK         0.3105 
    102 H102      -78.2905   26.5825  -77.1278 H         1 UNK         0.0547 
    103 H103      -77.1201   26.5335  -79.3035 H         1 UNK         0.0837 
    104 H104      -75.5834   26.2134  -78.5131 H         1 UNK         0.0837 
    105 H105      -76.8730   25.0117  -78.4673 H         1 UNK         0.0837 
    106 H106      -77.4201   25.3209  -75.5571 H         1 UNK         0.3020 
    107 H107      -74.1329   24.7188  -74.3513 H         1 UNK         0.1245 
    108 H108      -75.1547   26.5580  -72.8930 H         1 UNK         0.0781 
    109 H109      -74.9438   24.9934  -72.1684 H         1 UNK         0.0781 
    110 H110      -76.4678   26.2310  -70.3093 H         1 UNK         0.0836 
    111 H111      -78.2130   26.2579  -70.3886 H         1 UNK         0.0836 
    112 H112      -76.8586   23.6414  -74.8014 H         1 UNK         0.3022 
    113 H113      -75.7625   20.3762  -74.5623 H         1 UNK         0.0747 
    114 H114      -77.1718   19.8899  -72.5627 H         1 UNK         0.0793 
    115 H115      -75.6399   20.5999  -72.0851 H         1 UNK         0.0793 
    116 H116      -77.0953   21.5855  -72.0778 H         1 UNK         0.0793 
    117 H117      -78.3750   21.6055  -74.1763 H         1 UNK         0.3047 
    118 H118      -79.0718   22.1227  -77.5486 H         1 UNK         0.0822 
    119 H119      -80.8287   20.3864  -77.4354 H         1 UNK         0.0807 
    120 H120      -80.0585   19.6500  -76.0288 H         1 UNK         0.0807 
    121 H121      -79.2578   19.6226  -77.5936 H         1 UNK         0.0807 
    122 H122      -80.9904   21.9854  -75.5842 H         1 UNK         0.2946 
    123 H123      -81.9090   24.0423  -75.0779 H         1 UNK         0.1144 
    124 H124      -81.7793   24.7400  -72.6670 H         1 UNK         0.0793 
    125 H125      -80.0314   24.5364  -72.6830 H         1 UNK         0.0793 
    126 H126      -81.0835   23.1408  -72.8725 H         1 UNK         0.0793 
    127 H127      -79.8248   25.9971  -75.3121 H         1 UNK         0.2896 
@<TRIPOS>BOND
     1    1    2 1    
     2    1   67 1    
     3    1   68 1    
     4    1   69 1    
     5    2    3 2    
     6    2    4 am   BACKBONE|DICT|INTERRES
     7    4    5 1    
     8    4   70 1    
     9    5    6 1    
    10    5   65 1    
    11    5   71 1    
    12    6    7 1    
    13    6   72 1    
    14    6   73 1    
    15    7    8 1    
    16    8    9 1    
    17    8   74 1    
    18    8   75 1    
    19    9   10 ar   
    20    9   14 ar   
    21   10   11 ar   
    22   10   76 1    
    23   11   12 ar   
    24   11   48 1    
    25   12   13 ar   
    26   12   77 1    
    27   13   14 ar   
    28   13   15 1    
    29   14   78 1    
    30   15   16 1    
    31   15   79 1    
    32   15   80 1    
    33   16   17 1    
    34   17   18 1    
    35   17   81 1    
    36   17   82 1    
    37   18   19 1    
    38   18   22 1    
    39   18   83 1    
    40   19   20 am   BACKBONE|DICT|INTERRES
    41   19   21 2    
    42   20   84 1    
    43   20   85 1    
    44   22   23 am   BACKBONE|DICT|INTERRES
    45   22   86 1    
    46   23   24 2    
    47   23   25 1    
    48   25   26 1    
    49   25   27 1    
    50   25   87 1    
    51   26   88 1    
    52   26   89 1    
    53   26   90 1    
    54   27   28 am   BACKBONE|DICT|INTERRES
    55   27   91 1    
    56   28   29 2    
    57   28   30 1    
    58   30   31 1    
    59   30   32 1    
    60   30   92 1    
    61   31   93 1    
    62   31   94 1    
    63   31   95 1    
    64   32   33 am   BACKBONE|DICT|INTERRES
    65   32   96 1    
    66   33   34 2    
    67   33   35 1    
    68   35   36 1    
    69   35   37 1    
    70   35   97 1    
    71   36   98 1    
    72   36   99 1    
    73   36  100 1    
    74   37   38 am   BACKBONE|DICT|INTERRES
    75   37  101 1    
    76   38   39 2    
    77   38   40 1    
    78   40   41 1    
    79   40   42 1    
    80   40  102 1    
    81   41  103 1    
    82   41  104 1    
    83   41  105 1    
    84   42   43 am   BACKBONE|DICT|INTERRES
    85   42  106 1    
    86   43   44 2    
    87   43   45 1    
    88   45   46 1    
    89   45   49 1    
    90   45  107 1    
    91   46   47 1    
    92   46  108 1    
    93   46  109 1    
    94   47   48 1    
    95   48  110 1    
    96   48  111 1    
    97   49   50 am   BACKBONE|DICT|INTERRES
    98   49  112 1    
    99   50   51 2    
   100   50   52 1    
   101   52   53 1    
   102   52   54 1    
   103   52  113 1    
   104   53  114 1    
   105   53  115 1    
   106   53  116 1    
   107   54   55 am   BACKBONE|DICT|INTERRES
   108   54  117 1    
   109   55   56 2    
   110   55   57 1    
   111   57   58 1    
   112   57   59 1    
   113   57  118 1    
   114   58  119 1    
   115   58  120 1    
   116   58  121 1    
   117   59   60 am   BACKBONE|DICT|INTERRES
   118   59  122 1    
   119   60   61 2    
   120   60   62 1    
   121   62   63 1    
   122   62   64 1    
   123   62  123 1    
   124   63  124 1    
   125   63  125 1    
   126   63  126 1    
   127   64   65 am   BACKBONE|DICT|INTERRES
   128   64  127 1    
   129   65   66 2    
@<TRIPOS>SUBSTRUCTURE
     1 UNK         1 GROUP             0       ****    0 ROOT    
