@<TRIPOS>MOLECULE
3R135
127   129    1
SMALL
USER_CHARGES


@<TRIPOS>ATOM
      1 CA        -81.1547   21.8621  -70.7897 C.3       0 UNK        -0.1998 
      2 C         -81.8478   23.1429  -71.2287 C.2       0 UNK         0.4909 
      3 O         -83.0547   23.2859  -71.0343 O.2       0 UNK        -0.5240 
      4 N         -81.0963   24.0706  -71.8352 N.am      1 UNK        -0.4739 
      5 CA        -81.5685   25.3919  -72.2825 C.3       1 UNK         0.0864 
      6 C6        -80.4421   26.4623  -72.2528 C.3       11 UNK        -0.0881 
      7 S7        -79.5480   26.5305  -70.6581 S.3       11 UNK        -0.2682 
      8 C8        -77.7999   26.4780  -71.1840 C.3       11 UNK         0.0289 
      9 C9        -77.2028   27.8653  -71.3994 C.ar      11 UNK        -0.0687 
     10 C10       -77.7935   28.7713  -72.2869 C.ar      11 UNK        -0.0823 
     11 C11       -77.2216   30.0268  -72.5083 C.ar      11 UNK        -0.0830 
     12 C12       -76.0709   30.3921  -71.8086 C.ar      11 UNK        -0.1021 
     13 C13       -75.4497   29.4887  -70.9451 C.ar      11 UNK        -0.0753 
     14 C14       -76.0233   28.2294  -70.7392 C.ar      11 UNK        -0.0933 
     15 C15       -74.1483   29.8668  -70.2542 C.3       11 UNK         0.0166 
     16 S16       -72.7122   29.6199  -71.3507 S.3       11 UNK        -0.2615 
     17 C17       -72.6442   31.1818  -72.3029 C.3       11 UNK        -0.0865 
     18 CA        -73.1651   31.0656  -73.7703 C.3       10 UNK         0.0862 
     19 C         -73.1842   32.4280  -74.5293 C.2       10 UNK         0.5551 
     20 N         -73.6404   33.5001  -73.8937 N.am      10 UNK        -0.7319 
     21 O         -72.8280   32.5289  -75.7024 O.2       10 UNK        -0.5018 
     22 N         -72.5292   29.9842  -74.5354 N.am      10 UNK        -0.4509 
     23 C         -71.2323   29.8611  -74.8446 C.2       10 UNK         0.4899 
     24 O         -70.3521   30.6480  -74.4904 O.2       10 UNK        -0.4839 
     25 CA        -70.8766   28.6267  -75.6956 C.3       9 UNK         0.0222 
     26 CB        -69.3578   28.4001  -75.8536 C.3       9 UNK        -0.1966 
     27 N         -71.5565   27.4221  -75.2056 N.am      9 UNK        -0.4218 
     28 C         -71.3946   26.8117  -74.0206 C.2       9 UNK         0.5020 
     29 O         -70.5299   27.1122  -73.1966 O.2       9 UNK        -0.5274 
     30 CA        -72.3753   25.6727  -73.6835 C.3       8 UNK         0.0270 
     31 CB        -73.4636   26.1766  -72.7194 C.3       8 UNK        -0.1976 
     32 N         -73.0221   25.0905  -74.8614 N.am      8 UNK        -0.4313 
     33 C         -72.4155   24.3214  -75.7752 C.2       8 UNK         0.5041 
     34 O         -71.2389   23.9651  -75.7029 O.2       8 UNK        -0.5577 
     35 CA        -73.2615   23.9020  -76.9882 C.3       7 UNK         0.0284 
     36 CB        -74.1576   22.7008  -76.6432 C.3       7 UNK        -0.1958 
     37 N         -74.0824   25.0039  -77.4988 N.am      7 UNK        -0.4454 
     38 C         -73.6039   26.0606  -78.1709 C.2       7 UNK         0.5089 
     39 O         -72.4158   26.2144  -78.4521 O.2       7 UNK        -0.5125 
     40 CA        -74.6203   27.1381  -78.5872 C.3       6 UNK         0.0408 
     41 CB        -75.2720   26.7744  -79.9304 C.3       6 UNK        -0.1791 
     42 N         -75.6645   27.3548  -77.5840 N.am      6 UNK        -0.4762 
     43 C         -75.4593   27.9312  -76.3892 C.2       6 UNK         0.5007 
     44 O         -74.3648   28.3505  -76.0109 O.2       6 UNK        -0.5032 
     45 CA        -76.6689   27.9818  -75.4315 C.3       5 UNK         0.0783 
     46 C46       -77.5949   29.1905  -75.7321 C.3       11 UNK        -0.0857 
     47 S47       -76.9450   30.7887  -75.1389 S.3       11 UNK        -0.2512 
     48 C48       -77.8072   30.9724  -73.5432 C.3       11 UNK         0.0225 
     49 N         -77.4389   26.7324  -75.4451 N.am      5 UNK        -0.4615 
     50 C         -76.9556   25.5040  -75.2148 C.2       4 UNK         0.5053 
     51 O         -75.8024   25.2878  -74.8507 O.2       4 UNK        -0.5105 
     52 CA        -77.8860   24.3052  -75.4756 C.3       4 UNK         0.0263 
     53 CB        -78.1967   23.5581  -74.1694 C.3       4 UNK        -0.1981 
     54 N         -79.1420   24.6461  -76.1514 N.am      4 UNK        -0.4224 
     55 C         -79.2628   25.0824  -77.4142 C.2       3 UNK         0.4895 
     56 O         -78.2960   25.2910  -78.1493 O.2       3 UNK        -0.5091 
     57 CA        -80.6838   25.4034  -77.9246 C.3       3 UNK         0.0250 
     58 CB        -80.9550   24.7693  -79.3049 C.3       3 UNK        -0.1996 
     59 N         -81.7625   25.1016  -76.9671 N.am      3 UNK        -0.4254 
     60 C         -82.1820   23.8993  -76.5446 C.2       2 UNK         0.5004 
     61 O         -81.7042   22.8285  -76.9209 O.2       2 UNK        -0.5226 
     62 CA        -83.2610   23.9107  -75.4485 C.3       2 UNK         0.0269 
     63 CB        -84.0473   22.5879  -75.3887 C.3       2 UNK        -0.1926 
     64 N         -82.6492   24.1548  -74.1406 N.am      2 UNK        -0.4687 
     65 C         -82.2623   25.3480  -73.6678 C.2       1 UNK         0.5165 
     66 O         -82.4115   26.3912  -74.3067 O.2       1 UNK        -0.5079 
     67 H67       -81.6174   21.0005  -71.2704 H         1 UNK         0.0900 
     68 H68       -80.0948   21.8636  -71.0437 H         1 UNK         0.0900 
     69 H69       -81.2443   21.7392  -69.7107 H         1 UNK         0.0900 
     70 H70       -80.1078   23.9017  -71.9471 H         1 UNK         0.2959 
     71 H71       -82.3382   25.7245  -71.5822 H         1 UNK         0.1079 
     72 H72       -80.8655   27.4534  -72.4273 H         1 UNK         0.0837 
     73 H73       -79.7356   26.2941  -73.0665 H         1 UNK         0.0837 
     74 H74       -77.6849   25.8885  -72.0934 H         1 UNK         0.0685 
     75 H75       -77.2408   25.9464  -70.4126 H         1 UNK         0.0685 
     76 H76       -78.6835   28.4915  -72.8296 H         1 UNK         0.1434 
     77 H77       -75.6328   31.3661  -71.9727 H         1 UNK         0.1329 
     78 H78       -75.5410   27.5275  -70.0728 H         1 UNK         0.1335 
     79 H79       -74.1880   30.8986  -69.9024 H         1 UNK         0.0680 
     80 H80       -74.0103   29.2519  -69.3635 H         1 UNK         0.0680 
     81 H81       -71.6087   31.5253  -72.3026 H         1 UNK         0.1032 
     82 H82       -73.1983   31.9420  -71.7528 H         1 UNK         0.1032 
     83 H83       -74.2094   30.7637  -73.7311 H         1 UNK         0.0461 
     84 H84       -73.6678   34.3787  -74.3873 H         1 UNK         0.3453 
     85 H85       -73.9666   33.4552  -72.9424 H         1 UNK         0.3453 
     86 H86       -73.1758   29.3158  -74.9469 H         1 UNK         0.2984 
     87 H87       -71.2837   28.8152  -76.6902 H         1 UNK         0.0554 
     88 H88       -68.8881   29.2517  -76.3469 H         1 UNK         0.0847 
     89 H89       -69.1497   27.5186  -76.4599 H         1 UNK         0.0847 
     90 H90       -68.8617   28.2716  -74.8914 H         1 UNK         0.0847 
     91 H91       -72.3262   27.1035  -75.7791 H         1 UNK         0.3141 
     92 H92       -71.8086   24.8849  -73.1830 H         1 UNK         0.0743 
     93 H93       -74.1516   25.3784  -72.4400 H         1 UNK         0.0784 
     94 H94       -73.0224   26.5609  -71.7990 H         1 UNK         0.0784 
     95 H95       -74.0504   26.9846  -73.1596 H         1 UNK         0.0784 
     96 H96       -74.0226   25.2658  -74.9597 H         1 UNK         0.3213 
     97 H97       -72.5758   23.5948  -77.7812 H         1 UNK         0.0855 
     98 H98       -74.8589   22.9303  -75.8405 H         1 UNK         0.0814 
     99 H99       -73.5564   21.8524  -76.3135 H         1 UNK         0.0814 
    100 H100      -74.7325   22.3716  -77.5089 H         1 UNK         0.0814 
    101 H101      -75.0687   24.9797  -77.2863 H         1 UNK         0.3105 
    102 H102      -74.0756   28.0758  -78.7174 H         1 UNK         0.0547 
    103 H103      -75.8637   25.8605  -79.8599 H         1 UNK         0.0837 
    104 H104      -74.5162   26.6156  -80.7010 H         1 UNK         0.0837 
    105 H105      -75.9278   27.5711  -80.2815 H         1 UNK         0.0837 
    106 H106      -76.5864   26.9970  -77.8005 H         1 UNK         0.3020 
    107 H107      -76.2576   28.0841  -74.4256 H         1 UNK         0.1245 
    108 H108      -78.5732   29.0397  -75.2737 H         1 UNK         0.0781 
    109 H109      -77.7938   29.2744  -76.8024 H         1 UNK         0.0781 
    110 H110      -78.8776   30.8023  -73.6693 H         1 UNK         0.0836 
    111 H111      -77.7022   32.0033  -73.2015 H         1 UNK         0.0836 
    112 H112      -78.3968   26.8039  -75.7513 H         1 UNK         0.3022 
    113 H113      -77.3394   23.6229  -76.1298 H         1 UNK         0.0747 
    114 H114      -78.7521   24.1805  -73.4714 H         1 UNK         0.0793 
    115 H115      -78.7808   22.6567  -74.3569 H         1 UNK         0.0793 
    116 H116      -77.2784   23.2473  -73.6686 H         1 UNK         0.0793 
    117 H117      -79.9936   24.4859  -75.6351 H         1 UNK         0.3047 
    118 H118      -80.7067   26.4861  -78.0577 H         1 UNK         0.0822 
    119 H119      -81.9494   25.0243  -79.6711 H         1 UNK         0.0807 
    120 H120      -80.8743   23.6824  -79.2785 H         1 UNK         0.0807 
    121 H121      -80.2379   25.1258  -80.0456 H         1 UNK         0.0807 
    122 H122      -82.1794   25.9113  -76.5213 H         1 UNK         0.2946 
    123 H123      -83.9695   24.7116  -75.6743 H         1 UNK         0.1144 
    124 H124      -84.8488   22.6376  -74.6513 H         1 UNK         0.0793 
    125 H125      -83.4070   21.7437  -75.1292 H         1 UNK         0.0793 
    126 H126      -84.5075   22.3644  -76.3521 H         1 UNK         0.0793 
    127 H127      -82.4872   23.3457  -73.5582 H         1 UNK         0.2896 
@<TRIPOS>BOND
     1    1    2 1    
     2    1   67 1    
     3    1   68 1    
     4    1   69 1    
     5    2    3 2    
     6    2    4 am   BACKBONE|DICT|INTERRES
     7    4    5 1    
     8    4   70 1    
     9    5    6 1    
    10    5   65 1    
    11    5   71 1    
    12    6    7 1    
    13    6   72 1    
    14    6   73 1    
    15    7    8 1    
    16    8    9 1    
    17    8   74 1    
    18    8   75 1    
    19    9   10 ar   
    20    9   14 ar   
    21   10   11 ar   
    22   10   76 1    
    23   11   12 ar   
    24   11   48 1    
    25   12   13 ar   
    26   12   77 1    
    27   13   14 ar   
    28   13   15 1    
    29   14   78 1    
    30   15   16 1    
    31   15   79 1    
    32   15   80 1    
    33   16   17 1    
    34   17   18 1    
    35   17   81 1    
    36   17   82 1    
    37   18   19 1    
    38   18   22 1    
    39   18   83 1    
    40   19   20 am   BACKBONE|DICT|INTERRES
    41   19   21 2    
    42   20   84 1    
    43   20   85 1    
    44   22   23 am   BACKBONE|DICT|INTERRES
    45   22   86 1    
    46   23   24 2    
    47   23   25 1    
    48   25   26 1    
    49   25   27 1    
    50   25   87 1    
    51   26   88 1    
    52   26   89 1    
    53   26   90 1    
    54   27   28 am   BACKBONE|DICT|INTERRES
    55   27   91 1    
    56   28   29 2    
    57   28   30 1    
    58   30   31 1    
    59   30   32 1    
    60   30   92 1    
    61   31   93 1    
    62   31   94 1    
    63   31   95 1    
    64   32   33 am   BACKBONE|DICT|INTERRES
    65   32   96 1    
    66   33   34 2    
    67   33   35 1    
    68   35   36 1    
    69   35   37 1    
    70   35   97 1    
    71   36   98 1    
    72   36   99 1    
    73   36  100 1    
    74   37   38 am   BACKBONE|DICT|INTERRES
    75   37  101 1    
    76   38   39 2    
    77   38   40 1    
    78   40   41 1    
    79   40   42 1    
    80   40  102 1    
    81   41  103 1    
    82   41  104 1    
    83   41  105 1    
    84   42   43 am   BACKBONE|DICT|INTERRES
    85   42  106 1    
    86   43   44 2    
    87   43   45 1    
    88   45   46 1    
    89   45   49 1    
    90   45  107 1    
    91   46   47 1    
    92   46  108 1    
    93   46  109 1    
    94   47   48 1    
    95   48  110 1    
    96   48  111 1    
    97   49   50 am   BACKBONE|DICT|INTERRES
    98   49  112 1    
    99   50   51 2    
   100   50   52 1    
   101   52   53 1    
   102   52   54 1    
   103   52  113 1    
   104   53  114 1    
   105   53  115 1    
   106   53  116 1    
   107   54   55 am   BACKBONE|DICT|INTERRES
   108   54  117 1    
   109   55   56 2    
   110   55   57 1    
   111   57   58 1    
   112   57   59 1    
   113   57  118 1    
   114   58  119 1    
   115   58  120 1    
   116   58  121 1    
   117   59   60 am   BACKBONE|DICT|INTERRES
   118   59  122 1    
   119   60   61 2    
   120   60   62 1    
   121   62   63 1    
   122   62   64 1    
   123   62  123 1    
   124   63  124 1    
   125   63  125 1    
   126   63  126 1    
   127   64   65 am   BACKBONE|DICT|INTERRES
   128   64  127 1    
   129   65   66 2    
@<TRIPOS>SUBSTRUCTURE
     1 UNK         1 GROUP             0       ****    0 ROOT    
