@<TRIPOS>MOLECULE
3R135
127   129    1
SMALL
USER_CHARGES


@<TRIPOS>ATOM
      1 CA        -80.3497   23.6696  -71.8591 C.3       0 UNK        -0.1998 
      2 C         -81.2630   24.7690  -72.3804 C.2       0 UNK         0.4909 
      3 O         -82.3606   24.9441  -71.8493 O.2       0 UNK        -0.5240 
      4 N         -80.8194   25.5102  -73.4023 N.am      1 UNK        -0.4739 
      5 CA        -81.5508   26.6260  -74.0066 C.3       1 UNK         0.0864 
      6 C6        -80.8966   27.9957  -73.6950 C.3       11 UNK        -0.0881 
      7 S7        -81.1858   28.4959  -71.9669 S.3       11 UNK        -0.2682 
      8 C8        -80.0119   29.8773  -71.7879 C.3       11 UNK         0.0289 
      9 C9        -78.5559   29.4269  -71.7900 C.ar      11 UNK        -0.0687 
     10 C10       -78.1204   28.4279  -70.9141 C.ar      11 UNK        -0.0823 
     11 C11       -76.7809   28.0295  -70.8928 C.ar      11 UNK        -0.0830 
     12 C12       -75.8666   28.6545  -71.7483 C.ar      11 UNK        -0.1021 
     13 C13       -76.2874   29.6602  -72.6239 C.ar      11 UNK        -0.0753 
     14 C14       -77.6334   30.0371  -72.6443 C.ar      11 UNK        -0.0933 
     15 C15       -75.2986   30.3403  -73.5575 C.3       11 UNK         0.0166 
     16 S16       -74.5795   31.8325  -72.8043 S.3       11 UNK        -0.2615 
     17 C17       -73.0773   31.1636  -72.0079 C.3       11 UNK        -0.0865 
     18 CA        -71.8012   31.4328  -72.8507 C.3       10 UNK         0.0862 
     19 C         -70.5071   31.0386  -72.0781 C.2       10 UNK         0.5551 
     20 N         -69.6180   30.2151  -72.6226 N.am      10 UNK        -0.7319 
     21 O         -70.2996   31.5005  -70.9588 O.2       10 UNK        -0.5018 
     22 N         -71.9063   30.8274  -74.1867 N.am      10 UNK        -0.4509 
     23 C         -71.3352   31.2975  -75.3009 C.2       10 UNK         0.4899 
     24 O         -70.6937   32.3480  -75.3543 O.2       10 UNK        -0.4839 
     25 CA        -71.5129   30.4298  -76.5646 C.3       9 UNK         0.0222 
     26 CB        -70.4653   30.7404  -77.6545 C.3       9 UNK        -0.1966 
     27 N         -71.5528   28.9870  -76.2810 N.am      9 UNK        -0.4218 
     28 C         -70.5990   28.2561  -75.6760 C.2       9 UNK         0.5020 
     29 O         -69.5467   28.7332  -75.2485 O.2       9 UNK        -0.5274 
     30 CA        -70.8613   26.7527  -75.4609 C.3       8 UNK         0.0270 
     31 CB        -70.9704   26.4407  -73.9582 C.3       8 UNK        -0.1976 
     32 N         -72.0626   26.2670  -76.1459 N.am      8 UNK        -0.4313 
     33 C         -72.1318   26.0177  -77.4634 C.2       8 UNK         0.5041 
     34 O         -71.1616   26.0944  -78.2180 O.2       8 UNK        -0.5577 
     35 CA        -73.5040   25.6418  -78.0589 C.3       7 UNK         0.0284 
     36 CB        -73.5741   24.1299  -78.3296 C.3       7 UNK        -0.1958 
     37 N         -74.6524   26.0296  -77.2355 N.am      7 UNK        -0.4454 
     38 C         -74.9818   27.2794  -76.8796 C.2       7 UNK         0.5089 
     39 O         -74.3616   28.2815  -77.2371 O.2       7 UNK        -0.5125 
     40 CA        -76.1533   27.4208  -75.8908 C.3       6 UNK         0.0408 
     41 CB        -77.4750   27.6435  -76.6377 C.3       6 UNK        -0.1791 
     42 N         -76.2945   26.2873  -74.9680 N.am      6 UNK        -0.4762 
     43 C         -75.3536   25.8502  -74.1189 C.2       6 UNK         0.5007 
     44 O         -74.2316   26.3523  -74.0477 O.2       6 UNK        -0.5032 
     45 CA        -75.6776   24.6090  -73.2585 C.3       5 UNK         0.0783 
     46 C46       -76.4530   24.9633  -71.9627 C.3       11 UNK        -0.0857 
     47 S47       -75.3333   25.6299  -70.6838 S.3       11 UNK        -0.2512 
     48 C48       -76.3366   26.9444  -69.9177 C.3       11 UNK         0.0225 
     49 N         -76.2751   23.4951  -74.0095 N.am      5 UNK        -0.4615 
     50 C         -77.4872   23.4209  -74.5728 C.2       4 UNK         0.5053 
     51 O         -78.2967   24.3516  -74.5768 O.2       4 UNK        -0.5105 
     52 CA        -77.8102   22.0698  -75.2410 C.3       4 UNK         0.0263 
     53 CB        -78.0954   20.9803  -74.1854 C.3       4 UNK        -0.1981 
     54 N         -78.8805   22.1413  -76.2452 N.am      4 UNK        -0.4224 
     55 C         -80.1883   22.3583  -76.0501 C.2       3 UNK         0.4895 
     56 O         -80.7340   22.4639  -74.9490 O.2       3 UNK        -0.5091 
     57 CA        -81.0493   22.4656  -77.3116 C.3       3 UNK         0.0250 
     58 CB        -81.8246   21.1639  -77.5752 C.3       3 UNK        -0.1996 
     59 N         -81.9791   23.5613  -77.0844 N.am      3 UNK        -0.4254 
     60 C         -82.3221   24.4956  -77.9755 C.2       2 UNK         0.5004 
     61 O         -82.0446   24.4405  -79.1743 O.2       2 UNK        -0.5226 
     62 CA        -83.0835   25.7177  -77.4291 C.3       2 UNK         0.0269 
     63 CB        -84.5975   25.5442  -77.6323 C.3       2 UNK        -0.1926 
     64 N         -82.8138   26.0011  -76.0118 N.am      2 UNK        -0.4687 
     65 C         -81.6218   26.3700  -75.5176 C.2       1 UNK         0.5165 
     66 O         -80.6086   26.5037  -76.2047 O.2       1 UNK        -0.5079 
     67 H67       -79.3326   23.7797  -72.2289 H         1 UNK         0.0900 
     68 H68       -80.7229   22.6943  -72.1699 H         1 UNK         0.0900 
     69 H69       -80.3136   23.6927  -70.7704 H         1 UNK         0.0900 
     70 H70       -79.9465   25.2587  -73.8608 H         1 UNK         0.2959 
     71 H71       -82.5775   26.6553  -73.6348 H         1 UNK         0.1079 
     72 H72       -81.3057   28.7795  -74.3358 H         1 UNK         0.0837 
     73 H73       -79.8233   27.9627  -73.8930 H         1 UNK         0.0837 
     74 H74       -80.2154   30.3883  -70.8461 H         1 UNK         0.0685 
     75 H75       -80.1992   30.6043  -72.5798 H         1 UNK         0.0685 
     76 H76       -78.8323   27.9619  -70.2464 H         1 UNK         0.1434 
     77 H77       -74.8288   28.3516  -71.7354 H         1 UNK         0.1329 
     78 H78       -77.9583   30.8178  -73.3184 H         1 UNK         0.1335 
     79 H79       -74.5126   29.6439  -73.8523 H         1 UNK         0.0680 
     80 H80       -75.8042   30.6307  -74.4797 H         1 UNK         0.0680 
     81 H81       -72.9935   31.6396  -71.0290 H         1 UNK         0.1032 
     82 H82       -73.1945   30.0974  -71.8104 H         1 UNK         0.1032 
     83 H83       -71.7330   32.5144  -72.9824 H         1 UNK         0.0461 
     84 H84       -68.7875   29.9817  -72.1025 H         1 UNK         0.3453 
     85 H85       -69.7448   29.8398  -73.5557 H         1 UNK         0.3453 
     86 H86       -72.3910   29.9453  -74.2374 H         1 UNK         0.2984 
     87 H87       -72.4939   30.6838  -76.9688 H         1 UNK         0.0554 
     88 H88       -70.6229   30.1277  -78.5421 H         1 UNK         0.0847 
     89 H89       -69.4490   30.5632  -77.3008 H         1 UNK         0.0847 
     90 H90       -70.5227   31.7833  -77.9685 H         1 UNK         0.0847 
     91 H91       -72.4005   28.5162  -76.5819 H         1 UNK         0.3141 
     92 H92       -69.9971   26.2134  -75.8546 H         1 UNK         0.0743 
     93 H93       -70.0379   26.6757  -73.4432 H         1 UNK         0.0784 
     94 H94       -71.7573   27.0237  -73.4786 H         1 UNK         0.0784 
     95 H95       -71.1790   25.3852  -73.7827 H         1 UNK         0.0784 
     96 H96       -72.9030   26.1964  -75.5797 H         1 UNK         0.3213 
     97 H97       -73.5933   26.1670  -79.0123 H         1 UNK         0.0855 
     98 H98       -72.7502   23.8093  -78.9691 H         1 UNK         0.0814 
     99 H99       -74.4989   23.8585  -78.8390 H         1 UNK         0.0814 
    100 H100      -73.5136   23.5509  -77.4072 H         1 UNK         0.0814 
    101 H101      -75.2227   25.2804  -76.8721 H         1 UNK         0.3105 
    102 H102      -75.9580   28.3055  -75.2873 H         1 UNK         0.0547 
    103 H103      -77.7807   26.7582  -77.1966 H         1 UNK         0.0837 
    104 H104      -78.2783   27.8949  -75.9455 H         1 UNK         0.0837 
    105 H105      -77.3926   28.4683  -77.3469 H         1 UNK         0.0837 
    106 H106      -77.1843   25.7926  -74.9659 H         1 UNK         0.3020 
    107 H107      -74.7064   24.2130  -72.9548 H         1 UNK         0.1245 
    108 H108      -76.9104   24.0671  -71.5413 H         1 UNK         0.0781 
    109 H109      -77.2764   25.6499  -72.1682 H         1 UNK         0.0781 
    110 H110      -75.7540   27.4096  -69.1216 H         1 UNK         0.0836 
    111 H111      -77.1980   26.4797  -69.4352 H         1 UNK         0.0836 
    112 H112      -75.6790   22.6826  -74.0861 H         1 UNK         0.3022 
    113 H113      -76.9196   21.7687  -75.7952 H         1 UNK         0.0747 
    114 H114      -78.3439   20.0283  -74.6546 H         1 UNK         0.0793 
    115 H115      -77.2250   20.8083  -73.5512 H         1 UNK         0.0793 
    116 H116      -78.9200   21.2538  -73.5266 H         1 UNK         0.0793 
    117 H117      -78.5605   22.0850  -77.2022 H         1 UNK         0.3047 
    118 H118      -80.4084   22.6894  -78.1675 H         1 UNK         0.0822 
    119 H119      -81.1417   20.3295  -77.7392 H         1 UNK         0.0807 
    120 H120      -82.4521   21.2507  -78.4625 H         1 UNK         0.0807 
    121 H121      -82.4681   20.9007  -76.7346 H         1 UNK         0.0807 
    122 H122      -82.2100   23.7120  -76.1104 H         1 UNK         0.2946 
    123 H123      -82.7548   26.5830  -78.0096 H         1 UNK         0.1144 
    124 H124      -84.8313   25.3577  -78.6816 H         1 UNK         0.0793 
    125 H125      -85.1440   26.4398  -77.3358 H         1 UNK         0.0793 
    126 H126      -84.9889   24.7040  -77.0573 H         1 UNK         0.0793 
    127 H127      -83.5952   25.9044  -75.3785 H         1 UNK         0.2896 
@<TRIPOS>BOND
     1    1    2 1    
     2    1   67 1    
     3    1   68 1    
     4    1   69 1    
     5    2    3 2    
     6    2    4 am   BACKBONE|DICT|INTERRES
     7    4    5 1    
     8    4   70 1    
     9    5    6 1    
    10    5   65 1    
    11    5   71 1    
    12    6    7 1    
    13    6   72 1    
    14    6   73 1    
    15    7    8 1    
    16    8    9 1    
    17    8   74 1    
    18    8   75 1    
    19    9   10 ar   
    20    9   14 ar   
    21   10   11 ar   
    22   10   76 1    
    23   11   12 ar   
    24   11   48 1    
    25   12   13 ar   
    26   12   77 1    
    27   13   14 ar   
    28   13   15 1    
    29   14   78 1    
    30   15   16 1    
    31   15   79 1    
    32   15   80 1    
    33   16   17 1    
    34   17   18 1    
    35   17   81 1    
    36   17   82 1    
    37   18   19 1    
    38   18   22 1    
    39   18   83 1    
    40   19   20 am   BACKBONE|DICT|INTERRES
    41   19   21 2    
    42   20   84 1    
    43   20   85 1    
    44   22   23 am   BACKBONE|DICT|INTERRES
    45   22   86 1    
    46   23   24 2    
    47   23   25 1    
    48   25   26 1    
    49   25   27 1    
    50   25   87 1    
    51   26   88 1    
    52   26   89 1    
    53   26   90 1    
    54   27   28 am   BACKBONE|DICT|INTERRES
    55   27   91 1    
    56   28   29 2    
    57   28   30 1    
    58   30   31 1    
    59   30   32 1    
    60   30   92 1    
    61   31   93 1    
    62   31   94 1    
    63   31   95 1    
    64   32   33 am   BACKBONE|DICT|INTERRES
    65   32   96 1    
    66   33   34 2    
    67   33   35 1    
    68   35   36 1    
    69   35   37 1    
    70   35   97 1    
    71   36   98 1    
    72   36   99 1    
    73   36  100 1    
    74   37   38 am   BACKBONE|DICT|INTERRES
    75   37  101 1    
    76   38   39 2    
    77   38   40 1    
    78   40   41 1    
    79   40   42 1    
    80   40  102 1    
    81   41  103 1    
    82   41  104 1    
    83   41  105 1    
    84   42   43 am   BACKBONE|DICT|INTERRES
    85   42  106 1    
    86   43   44 2    
    87   43   45 1    
    88   45   46 1    
    89   45   49 1    
    90   45  107 1    
    91   46   47 1    
    92   46  108 1    
    93   46  109 1    
    94   47   48 1    
    95   48  110 1    
    96   48  111 1    
    97   49   50 am   BACKBONE|DICT|INTERRES
    98   49  112 1    
    99   50   51 2    
   100   50   52 1    
   101   52   53 1    
   102   52   54 1    
   103   52  113 1    
   104   53  114 1    
   105   53  115 1    
   106   53  116 1    
   107   54   55 am   BACKBONE|DICT|INTERRES
   108   54  117 1    
   109   55   56 2    
   110   55   57 1    
   111   57   58 1    
   112   57   59 1    
   113   57  118 1    
   114   58  119 1    
   115   58  120 1    
   116   58  121 1    
   117   59   60 am   BACKBONE|DICT|INTERRES
   118   59  122 1    
   119   60   61 2    
   120   60   62 1    
   121   62   63 1    
   122   62   64 1    
   123   62  123 1    
   124   63  124 1    
   125   63  125 1    
   126   63  126 1    
   127   64   65 am   BACKBONE|DICT|INTERRES
   128   64  127 1    
   129   65   66 2    
@<TRIPOS>SUBSTRUCTURE
     1 UNK         1 GROUP             0       ****    0 ROOT    
