@<TRIPOS>MOLECULE
3R135
127   129    1
SMALL
USER_CHARGES


@<TRIPOS>ATOM
      1 CA        -79.5717   29.6413  -76.1123 C.3       0 UNK        -0.1998 
      2 C         -80.3846   28.7671  -75.1700 C.2       0 UNK         0.4909 
      3 O         -81.5891   28.6074  -75.3704 O.2       0 UNK        -0.5240 
      4 N         -79.7253   28.1881  -74.1578 N.am      1 UNK        -0.4739 
      5 CA        -80.2546   27.3274  -73.0850 C.3       1 UNK         0.0864 
      6 C6        -81.3296   27.9900  -72.1752 C.3       11 UNK        -0.0881 
      7 S7        -81.0034   29.7230  -71.6785 S.3       11 UNK        -0.2682 
      8 C8        -79.6172   29.5929  -70.4984 C.3       11 UNK         0.0289 
      9 C9        -78.2911   29.3408  -71.2036 C.ar      11 UNK        -0.0687 
     10 C10       -77.5629   28.1796  -70.9381 C.ar      11 UNK        -0.0823 
     11 C11       -76.4057   27.8878  -71.6637 C.ar      11 UNK        -0.0830 
     12 C12       -75.9512   28.7902  -72.6314 C.ar      11 UNK        -0.1021 
     13 C13       -76.6366   29.9908  -72.8659 C.ar      11 UNK        -0.0753 
     14 C14       -77.8075   30.2521  -72.1477 C.ar      11 UNK        -0.0933 
     15 C15       -76.1746   31.0160  -73.9039 C.3       11 UNK         0.0166 
     16 S16       -74.3860   31.0172  -74.2620 S.3       11 UNK        -0.2615 
     17 C17       -73.7062   31.4670  -72.6307 C.3       11 UNK        -0.0865 
     18 CA        -72.1611   31.5888  -72.6278 C.3       10 UNK         0.0862 
     19 C         -71.6688   32.0813  -71.2343 C.2       10 UNK         0.5551 
     20 N         -70.9892   31.2624  -70.4404 N.am      10 UNK        -0.7319 
     21 O         -71.9101   33.2297  -70.8703 O.2       10 UNK        -0.5018 
     22 N         -71.5107   30.3627  -73.1259 N.am      10 UNK        -0.4509 
     23 C         -70.2194   30.2539  -73.4570 C.2       10 UNK         0.4899 
     24 O         -69.4187   31.1882  -73.4106 O.2       10 UNK        -0.4839 
     25 CA        -69.7250   28.8727  -73.9195 C.3       9 UNK         0.0222 
     26 CB        -69.6900   27.8650  -72.7522 C.3       9 UNK        -0.1966 
     27 N         -70.4337   28.3337  -75.0886 N.am      9 UNK        -0.4218 
     28 C         -71.7033   27.9152  -75.1851 C.2       9 UNK         0.5020 
     29 O         -72.5145   27.9258  -74.2543 O.2       9 UNK        -0.5274 
     30 CA        -72.1038   27.3335  -76.5510 C.3       8 UNK         0.0270 
     31 CB        -71.7115   25.8492  -76.6318 C.3       8 UNK        -0.1976 
     32 N         -73.5427   27.4670  -76.7806 N.am      8 UNK        -0.4313 
     33 C         -74.1317   28.5941  -77.2062 C.2       8 UNK         0.5041 
     34 O         -73.4974   29.5921  -77.5556 O.2       8 UNK        -0.5577 
     35 CA        -75.6766   28.6278  -77.2411 C.3       7 UNK         0.0284 
     36 CB        -76.2295   29.6392  -78.2676 C.3       7 UNK        -0.1958 
     37 N         -76.3048   27.3120  -77.4122 N.am      7 UNK        -0.4454 
     38 C         -76.1713   26.4607  -78.4418 C.2       7 UNK         0.5089 
     39 O         -75.5469   26.7160  -79.4724 O.2       7 UNK        -0.5125 
     40 CA        -76.8339   25.0754  -78.2610 C.3       6 UNK         0.0408 
     41 CB        -76.1699   23.9827  -79.1236 C.3       6 UNK        -0.1791 
     42 N         -76.9115   24.6429  -76.8566 N.am      6 UNK        -0.4762 
     43 C         -75.8863   24.5068  -75.9982 C.2       6 UNK         0.5007 
     44 O         -74.7128   24.7181  -76.2988 O.2       6 UNK        -0.5032 
     45 CA        -76.2264   24.1448  -74.5460 C.3       5 UNK         0.0783 
     46 C46       -76.6538   25.4165  -73.7789 C.3       11 UNK        -0.0857 
     47 S47       -76.6496   25.1503  -71.9774 S.3       11 UNK        -0.2512 
     48 C48       -75.6691   26.5798  -71.4128 C.3       11 UNK         0.0225 
     49 N         -77.2557   23.1048  -74.5118 N.am      5 UNK        -0.4615 
     50 C         -77.0056   21.7992  -74.3498 C.2       4 UNK         0.5053 
     51 O         -75.8862   21.3344  -74.1325 O.2       4 UNK        -0.5105 
     52 CA        -78.2046   20.8394  -74.4633 C.3       4 UNK         0.0263 
     53 CB        -78.8824   20.6639  -73.0948 C.3       4 UNK        -0.1981 
     54 N         -79.1992   21.2844  -75.4413 N.am      4 UNK        -0.4224 
     55 C         -78.9863   21.3896  -76.7613 C.2       3 UNK         0.4895 
     56 O         -77.9627   20.9981  -77.3221 O.2       3 UNK        -0.5091 
     57 CA        -80.0877   22.0636  -77.6028 C.3       3 UNK         0.0250 
     58 CB        -80.8729   21.0100  -78.4013 C.3       3 UNK        -0.1996 
     59 N         -81.0335   22.8888  -76.8381 N.am      3 UNK        -0.4254 
     60 C         -80.7159   23.9794  -76.1260 C.2       2 UNK         0.5004 
     61 O         -79.5592   24.3950  -76.0094 O.2       2 UNK        -0.5226 
     62 CA        -81.8885   24.7112  -75.4436 C.3       2 UNK         0.0269 
     63 CB        -82.7425   23.7657  -74.5693 C.3       2 UNK        -0.1926 
     64 N         -81.4521   25.8862  -74.6793 N.am      2 UNK        -0.4687 
     65 C         -80.7044   25.9312  -73.5679 C.2       1 UNK         0.5165 
     66 O         -80.3473   24.9349  -72.9377 O.2       1 UNK        -0.5079 
     67 H67       -79.8890   30.6801  -76.0263 H         1 UNK         0.0900 
     68 H68       -78.5058   29.5913  -75.8951 H         1 UNK         0.0900 
     69 H69       -79.7213   29.3221  -77.1433 H         1 UNK         0.0900 
     70 H70       -78.7398   28.3867  -74.0601 H         1 UNK         0.2959 
     71 H71       -79.3934   27.1177  -72.4553 H         1 UNK         0.1079 
     72 H72       -81.4733   27.3949  -71.2714 H         1 UNK         0.0837 
     73 H73       -82.2948   27.9909  -72.6853 H         1 UNK         0.0837 
     74 H74       -79.8357   28.8116  -69.7688 H         1 UNK         0.0685 
     75 H75       -79.5437   30.5264  -69.9391 H         1 UNK         0.0685 
     76 H76       -77.9236   27.4712  -70.2044 H         1 UNK         0.1434 
     77 H77       -75.0592   28.5548  -73.1962 H         1 UNK         0.1329 
     78 H78       -78.3667   31.1572  -72.3430 H         1 UNK         0.1335 
     79 H79       -76.7118   30.8368  -74.8348 H         1 UNK         0.0680 
     80 H80       -76.4525   32.0204  -73.5803 H         1 UNK         0.0680 
     81 H81       -74.0233   30.7242  -71.8968 H         1 UNK         0.1032 
     82 H82       -74.1637   32.4105  -72.3258 H         1 UNK         0.1032 
     83 H83       -71.8994   32.3818  -73.3310 H         1 UNK         0.0461 
     84 H84       -70.6731   31.5920  -69.5420 H         1 UNK         0.3453 
     85 H85       -70.7900   30.3199  -70.7335 H         1 UNK         0.3453 
     86 H86       -72.1056   29.5512  -73.2687 H         1 UNK         0.2984 
     87 H87       -68.6938   29.0089  -74.2496 H         1 UNK         0.0554 
     88 H88       -69.0798   28.2433  -71.9311 H         1 UNK         0.0847 
     89 H89       -69.2573   26.9144  -73.0639 H         1 UNK         0.0847 
     90 H90       -70.6827   27.6625  -72.3496 H         1 UNK         0.0847 
     91 H91       -69.8732   28.2896  -75.9289 H         1 UNK         0.3141 
     92 H92       -71.5710   27.8726  -77.3376 H         1 UNK         0.0743 
     93 H93       -70.6295   25.7255  -76.5733 H         1 UNK         0.0784 
     94 H94       -72.0393   25.4008  -77.5701 H         1 UNK         0.0784 
     95 H95       -72.1472   25.2722  -75.8150 H         1 UNK         0.0784 
     96 H96       -74.1111   26.6671  -76.5240 H         1 UNK         0.3213 
     97 H97       -75.9765   28.9716  -76.2507 H         1 UNK         0.0855 
     98 H98       -75.8944   29.4101  -79.2796 H         1 UNK         0.0814 
     99 H99       -75.8956   30.6516  -78.0367 H         1 UNK         0.0814 
    100 H100      -77.3189   29.6522  -78.2703 H         1 UNK         0.0814 
    101 H101      -76.8495   26.9817  -76.6293 H         1 UNK         0.3105 
    102 H102      -77.8648   25.1848  -78.6008 H         1 UNK         0.0547 
    103 H103      -76.6584   23.0180  -78.9858 H         1 UNK         0.0837 
    104 H104      -75.1141   23.8616  -78.8793 H         1 UNK         0.0837 
    105 H105      -76.2322   24.2277  -80.1845 H         1 UNK         0.0837 
    106 H106      -77.8587   24.4940  -76.5067 H         1 UNK         0.3020 
    107 H107      -75.3036   23.7720  -74.0944 H         1 UNK         0.1245 
    108 H108      -77.6499   25.7423  -74.0828 H         1 UNK         0.0781 
    109 H109      -75.9793   26.2438  -74.0086 H         1 UNK         0.0781 
    110 H110      -74.6953   26.5748  -71.9061 H         1 UNK         0.0836 
    111 H111      -75.4722   26.4764  -70.3449 H         1 UNK         0.0836 
    112 H112      -78.2030   23.4048  -74.7089 H         1 UNK         0.3022 
    113 H113      -77.8244   19.8684  -74.7879 H         1 UNK         0.0747 
    114 H114      -79.6889   19.9318  -73.1410 H         1 UNK         0.0793 
    115 H115      -78.1684   20.3110  -72.3493 H         1 UNK         0.0793 
    116 H116      -79.2995   21.6029  -72.7270 H         1 UNK         0.0793 
    117 H117      -80.0784   21.6189  -75.0759 H         1 UNK         0.3047 
    118 H118      -79.5815   22.7222  -78.3120 H         1 UNK         0.0822 
    119 H119      -81.5851   21.4760  -79.0825 H         1 UNK         0.0807 
    120 H120      -81.4247   20.3352  -77.7457 H         1 UNK         0.0807 
    121 H121      -80.2025   20.3988  -79.0076 H         1 UNK         0.0807 
    122 H122      -82.0039   22.6129  -76.8886 H         1 UNK         0.2946 
    123 H123      -82.5208   25.0964  -76.2453 H         1 UNK         0.1144 
    124 H124      -83.5139   24.3163  -74.0306 H         1 UNK         0.0793 
    125 H125      -82.1402   23.2321  -73.8332 H         1 UNK         0.0793 
    126 H126      -83.2542   23.0159  -75.1731 H         1 UNK         0.0793 
    127 H127      -81.6551   26.7888  -75.1051 H         1 UNK         0.2896 
@<TRIPOS>BOND
     1    1    2 1    
     2    1   67 1    
     3    1   68 1    
     4    1   69 1    
     5    2    3 2    
     6    2    4 am   BACKBONE|DICT|INTERRES
     7    4    5 1    
     8    4   70 1    
     9    5    6 1    
    10    5   65 1    
    11    5   71 1    
    12    6    7 1    
    13    6   72 1    
    14    6   73 1    
    15    7    8 1    
    16    8    9 1    
    17    8   74 1    
    18    8   75 1    
    19    9   10 ar   
    20    9   14 ar   
    21   10   11 ar   
    22   10   76 1    
    23   11   12 ar   
    24   11   48 1    
    25   12   13 ar   
    26   12   77 1    
    27   13   14 ar   
    28   13   15 1    
    29   14   78 1    
    30   15   16 1    
    31   15   79 1    
    32   15   80 1    
    33   16   17 1    
    34   17   18 1    
    35   17   81 1    
    36   17   82 1    
    37   18   19 1    
    38   18   22 1    
    39   18   83 1    
    40   19   20 am   BACKBONE|DICT|INTERRES
    41   19   21 2    
    42   20   84 1    
    43   20   85 1    
    44   22   23 am   BACKBONE|DICT|INTERRES
    45   22   86 1    
    46   23   24 2    
    47   23   25 1    
    48   25   26 1    
    49   25   27 1    
    50   25   87 1    
    51   26   88 1    
    52   26   89 1    
    53   26   90 1    
    54   27   28 am   BACKBONE|DICT|INTERRES
    55   27   91 1    
    56   28   29 2    
    57   28   30 1    
    58   30   31 1    
    59   30   32 1    
    60   30   92 1    
    61   31   93 1    
    62   31   94 1    
    63   31   95 1    
    64   32   33 am   BACKBONE|DICT|INTERRES
    65   32   96 1    
    66   33   34 2    
    67   33   35 1    
    68   35   36 1    
    69   35   37 1    
    70   35   97 1    
    71   36   98 1    
    72   36   99 1    
    73   36  100 1    
    74   37   38 am   BACKBONE|DICT|INTERRES
    75   37  101 1    
    76   38   39 2    
    77   38   40 1    
    78   40   41 1    
    79   40   42 1    
    80   40  102 1    
    81   41  103 1    
    82   41  104 1    
    83   41  105 1    
    84   42   43 am   BACKBONE|DICT|INTERRES
    85   42  106 1    
    86   43   44 2    
    87   43   45 1    
    88   45   46 1    
    89   45   49 1    
    90   45  107 1    
    91   46   47 1    
    92   46  108 1    
    93   46  109 1    
    94   47   48 1    
    95   48  110 1    
    96   48  111 1    
    97   49   50 am   BACKBONE|DICT|INTERRES
    98   49  112 1    
    99   50   51 2    
   100   50   52 1    
   101   52   53 1    
   102   52   54 1    
   103   52  113 1    
   104   53  114 1    
   105   53  115 1    
   106   53  116 1    
   107   54   55 am   BACKBONE|DICT|INTERRES
   108   54  117 1    
   109   55   56 2    
   110   55   57 1    
   111   57   58 1    
   112   57   59 1    
   113   57  118 1    
   114   58  119 1    
   115   58  120 1    
   116   58  121 1    
   117   59   60 am   BACKBONE|DICT|INTERRES
   118   59  122 1    
   119   60   61 2    
   120   60   62 1    
   121   62   63 1    
   122   62   64 1    
   123   62  123 1    
   124   63  124 1    
   125   63  125 1    
   126   63  126 1    
   127   64   65 am   BACKBONE|DICT|INTERRES
   128   64  127 1    
   129   65   66 2    
@<TRIPOS>SUBSTRUCTURE
     1 UNK         1 GROUP             0       ****    0 ROOT    
