@<TRIPOS>MOLECULE
3R135
127   129    1
SMALL
USER_CHARGES


@<TRIPOS>ATOM
      1 CA        -83.7149   26.8458  -75.3269 C.3       0 UNK        -0.1998 
      2 C         -82.4839   27.7362  -75.2650 C.2       0 UNK         0.4909 
      3 O         -81.9041   28.0573  -76.3028 O.2       0 UNK        -0.5240 
      4 N         -82.0701   28.1374  -74.0570 N.am      1 UNK        -0.4739 
      5 CA        -80.8322   28.8835  -73.8121 C.3       1 UNK         0.0864 
      6 C6        -80.7824   29.4970  -72.3894 C.3       11 UNK        -0.0881 
      7 S7        -81.1654   28.3198  -71.0444 S.3       11 UNK        -0.2682 
      8 C8        -79.8469   28.6871  -69.8422 C.3       11 UNK         0.0289 
      9 C9        -78.4576   28.2876  -70.3258 C.ar      11 UNK        -0.0687 
     10 C10       -78.2043   26.9830  -70.7610 C.ar      11 UNK        -0.0823 
     11 C11       -76.9161   26.5941  -71.1391 C.ar      11 UNK        -0.0830 
     12 C12       -75.8763   27.5264  -71.0839 C.ar      11 UNK        -0.1021 
     13 C13       -76.1129   28.8363  -70.6556 C.ar      11 UNK        -0.0753 
     14 C14       -77.4070   29.2091  -70.2762 C.ar      11 UNK        -0.0933 
     15 C15       -74.9460   29.8111  -70.5388 C.3       11 UNK         0.0166 
     16 S16       -75.2822   31.4743  -71.2095 S.3       11 UNK        -0.2615 
     17 C17       -75.5840   31.1493  -72.9834 C.3       11 UNK        -0.0865 
     18 CA        -74.4159   31.4670  -73.9709 C.3       10 UNK         0.0862 
     19 C         -73.7868   32.8942  -73.8986 C.2       10 UNK         0.5551 
     20 N         -74.5024   33.8879  -73.3886 N.am      10 UNK        -0.7319 
     21 O         -72.6799   33.1292  -74.3799 O.2       10 UNK        -0.5018 
     22 N         -73.4570   30.3563  -74.0803 N.am      10 UNK        -0.4509 
     23 C         -72.4208   30.0765  -73.2764 C.2       10 UNK         0.4899 
     24 O         -72.0886   30.7460  -72.2986 O.2       10 UNK        -0.4839 
     25 CA        -71.6227   28.8031  -73.6073 C.3       9 UNK         0.0222 
     26 CB        -72.0952   27.6323  -72.7292 C.3       9 UNK        -0.1966 
     27 N         -71.7449   28.4116  -75.0120 N.am      9 UNK        -0.4218 
     28 C         -71.0342   28.9137  -76.0274 C.2       9 UNK         0.5020 
     29 O         -70.1400   29.7491  -75.8814 O.2       9 UNK        -0.5274 
     30 CA        -71.3826   28.3887  -77.4394 C.3       8 UNK         0.0270 
     31 CB        -70.3355   28.7931  -78.4951 C.3       8 UNK        -0.1976 
     32 N         -71.5771   26.9330  -77.4980 N.am      8 UNK        -0.4313 
     33 C         -72.6425   26.2685  -77.0341 C.2       8 UNK         0.5041 
     34 O         -73.5760   26.8114  -76.4381 O.2       8 UNK        -0.5577 
     35 CA        -72.6400   24.7491  -77.2078 C.3       7 UNK         0.0284 
     36 CB        -71.9263   24.0664  -76.0278 C.3       7 UNK        -0.1958 
     37 N         -74.0230   24.2899  -77.2684 N.am      7 UNK        -0.4454 
     38 C         -74.4645   23.2557  -77.9918 C.2       7 UNK         0.5089 
     39 O         -73.7394   22.5524  -78.6986 O.2       7 UNK        -0.5125 
     40 CA        -75.9720   22.9627  -77.8886 C.3       6 UNK         0.0408 
     41 CB        -76.4032   21.6707  -78.6138 C.3       6 UNK        -0.1791 
     42 N         -76.4340   22.9733  -76.4971 N.am      6 UNK        -0.4762 
     43 C         -76.0700   22.1460  -75.5050 C.2       6 UNK         0.5007 
     44 O         -75.2963   21.1985  -75.6490 O.2       6 UNK        -0.5032 
     45 CA        -76.6830   22.3986  -74.1129 C.3       5 UNK         0.0783 
     46 C46       -75.6902   23.1178  -73.1561 C.3       11 UNK        -0.0857 
     47 S47       -75.8086   24.9442  -73.1227 S.3       11 UNK        -0.2512 
     48 C48       -76.6398   25.1441  -71.5125 C.3       11 UNK         0.0225 
     49 N         -77.9853   23.0687  -74.2037 N.am      5 UNK        -0.4615 
     50 C         -79.1529   22.4487  -74.4147 C.2       4 UNK         0.5053 
     51 O         -79.2877   21.2254  -74.4438 O.2       4 UNK        -0.5105 
     52 CA        -80.3713   23.3532  -74.6632 C.3       4 UNK         0.0263 
     53 CB        -80.9233   23.9069  -73.3392 C.3       4 UNK        -0.1981 
     54 N         -80.0506   24.4544  -75.5769 N.am      4 UNK        -0.4224 
     55 C         -79.8235   24.2877  -76.8916 C.2       3 UNK         0.4895 
     56 O         -79.9412   23.2053  -77.4662 O.2       3 UNK        -0.5091 
     57 CA        -79.3869   25.5090  -77.7228 C.3       3 UNK         0.0250 
     58 CB        -80.5253   25.9713  -78.6464 C.3       3 UNK        -0.1996 
     59 N         -78.9200   26.6367  -76.9134 N.am      3 UNK        -0.4254 
     60 C         -77.7444   26.6647  -76.2669 C.2       2 UNK         0.5004 
     61 O         -76.9197   25.7552  -76.3312 O.2       2 UNK        -0.5226 
     62 CA        -77.4463   27.8875  -75.3773 C.3       2 UNK         0.0269 
     63 CB        -76.5784   28.8928  -76.1483 C.3       2 UNK        -0.1926 
     64 N         -78.6403   28.5791  -74.8747 N.am      2 UNK        -0.4687 
     65 C         -79.6040   28.0079  -74.1387 C.2       1 UNK         0.5165 
     66 O         -79.5781   26.8262  -73.7871 O.2       1 UNK        -0.5079 
     67 H67       -84.1340   26.6617  -74.3379 H         1 UNK         0.0900 
     68 H68       -84.4847   27.3114  -75.9416 H         1 UNK         0.0900 
     69 H69       -83.4574   25.8844  -75.7709 H         1 UNK         0.0900 
     70 H70       -82.5503   27.8230  -73.2254 H         1 UNK         0.2959 
     71 H71       -80.8291   29.7198  -74.5152 H         1 UNK         0.1079 
     72 H72       -79.8137   29.9683  -72.2128 H         1 UNK         0.0837 
     73 H73       -81.5117   30.3059  -72.3246 H         1 UNK         0.0837 
     74 H74       -80.0596   28.1481  -68.9182 H         1 UNK         0.0685 
     75 H75       -79.8849   29.7489  -69.5934 H         1 UNK         0.0685 
     76 H76       -79.0133   26.2656  -70.7849 H         1 UNK         0.1434 
     77 H77       -74.8750   27.2175  -71.3481 H         1 UNK         0.1329 
     78 H78       -77.5891   30.2134  -69.9189 H         1 UNK         0.1335 
     79 H79       -74.0613   29.4058  -71.0274 H         1 UNK         0.0680 
     80 H80       -74.6885   29.9125  -69.4840 H         1 UNK         0.0680 
     81 H81       -75.9010   30.1129  -73.1078 H         1 UNK         0.1032 
     82 H82       -76.4583   31.7370  -73.2668 H         1 UNK         0.1032 
     83 H83       -74.8734   31.4773  -74.9601 H         1 UNK         0.0461 
     84 H84       -74.1101   34.8160  -73.3691 H         1 UNK         0.3453 
     85 H85       -75.4031   33.7136  -72.9720 H         1 UNK         0.3453 
     86 H86       -73.5985   29.7457  -74.8703 H         1 UNK         0.2984 
     87 H87       -70.5723   28.9988  -73.3814 H         1 UNK         0.0554 
     88 H88       -72.0350   27.8854  -71.6698 H         1 UNK         0.0847 
     89 H89       -71.4784   26.7471  -72.8851 H         1 UNK         0.0847 
     90 H90       -73.1289   27.3595  -72.9453 H         1 UNK         0.0847 
     91 H91       -72.4759   27.7443  -75.2538 H         1 UNK         0.3141 
     92 H92       -72.3260   28.8634  -77.7181 H         1 UNK         0.0743 
     93 H93       -69.3548   28.3707  -78.2724 H         1 UNK         0.0784 
     94 H94       -70.6268   28.4614  -79.4919 H         1 UNK         0.0784 
     95 H95       -70.2215   29.8771  -78.5409 H         1 UNK         0.0784 
     96 H96       -70.8293   26.4038  -77.9241 H         1 UNK         0.3213 
     97 H97       -72.1265   24.5068  -78.1410 H         1 UNK         0.0855 
     98 H98       -72.4135   24.2945  -75.0784 H         1 UNK         0.0814 
     99 H99       -70.8888   24.3937  -75.9511 H         1 UNK         0.0814 
    100 H100      -71.9168   22.9825  -76.1449 H         1 UNK         0.0814 
    101 H101      -74.6877   24.8682  -76.7624 H         1 UNK         0.3105 
    102 H102      -76.4762   23.7948  -78.3813 H         1 UNK         0.0547 
    103 H103      -77.4780   21.5102  -78.5278 H         1 UNK         0.0837 
    104 H104      -75.8983   20.7902  -78.2158 H         1 UNK         0.0837 
    105 H105      -76.1675   21.7251  -79.6771 H         1 UNK         0.0837 
    106 H106      -76.9733   23.7957  -76.2451 H         1 UNK         0.3020 
    107 H107      -76.8491   21.4022  -73.6957 H         1 UNK         0.1245 
    108 H108      -74.6557   22.8490  -73.3803 H         1 UNK         0.0781 
    109 H109      -75.8532   22.7417  -72.1452 H         1 UNK         0.0781 
    110 H110      -76.0181   24.7028  -70.7322 H         1 UNK         0.0836 
    111 H111      -77.5685   24.5712  -71.5291 H         1 UNK         0.0836 
    112 H112      -77.9601   24.0788  -74.1801 H         1 UNK         0.3022 
    113 H113      -81.1530   22.7460  -75.1250 H         1 UNK         0.0747 
    114 H114      -81.7760   24.5650  -73.5073 H         1 UNK         0.0793 
    115 H115      -81.2597   23.0968  -72.6911 H         1 UNK         0.0793 
    116 H116      -80.1706   24.4706  -72.7869 H         1 UNK         0.0793 
    117 H117      -79.9194   25.3697  -75.1565 H         1 UNK         0.3047 
    118 H118      -78.5575   25.1863  -78.3556 H         1 UNK         0.0822 
    119 H119      -80.2329   26.8377  -79.2399 H         1 UNK         0.0807 
    120 H120      -81.4224   26.2327  -78.0857 H         1 UNK         0.0807 
    121 H121      -80.8028   25.1804  -79.3445 H         1 UNK         0.0807 
    122 H122      -79.5642   27.4073  -76.7912 H         1 UNK         0.2946 
    123 H123      -76.8837   27.5275  -74.5124 H         1 UNK         0.1144 
    124 H124      -77.0886   29.2695  -77.0357 H         1 UNK         0.0793 
    125 H125      -75.6482   28.4310  -76.4804 H         1 UNK         0.0793 
    126 H126      -76.3141   29.7456  -75.5279 H         1 UNK         0.0793 
    127 H127      -78.7436   29.5460  -75.1472 H         1 UNK         0.2896 
@<TRIPOS>BOND
     1    1    2 1    
     2    1   67 1    
     3    1   68 1    
     4    1   69 1    
     5    2    3 2    
     6    2    4 am   BACKBONE|DICT|INTERRES
     7    4    5 1    
     8    4   70 1    
     9    5    6 1    
    10    5   65 1    
    11    5   71 1    
    12    6    7 1    
    13    6   72 1    
    14    6   73 1    
    15    7    8 1    
    16    8    9 1    
    17    8   74 1    
    18    8   75 1    
    19    9   10 ar   
    20    9   14 ar   
    21   10   11 ar   
    22   10   76 1    
    23   11   12 ar   
    24   11   48 1    
    25   12   13 ar   
    26   12   77 1    
    27   13   14 ar   
    28   13   15 1    
    29   14   78 1    
    30   15   16 1    
    31   15   79 1    
    32   15   80 1    
    33   16   17 1    
    34   17   18 1    
    35   17   81 1    
    36   17   82 1    
    37   18   19 1    
    38   18   22 1    
    39   18   83 1    
    40   19   20 am   BACKBONE|DICT|INTERRES
    41   19   21 2    
    42   20   84 1    
    43   20   85 1    
    44   22   23 am   BACKBONE|DICT|INTERRES
    45   22   86 1    
    46   23   24 2    
    47   23   25 1    
    48   25   26 1    
    49   25   27 1    
    50   25   87 1    
    51   26   88 1    
    52   26   89 1    
    53   26   90 1    
    54   27   28 am   BACKBONE|DICT|INTERRES
    55   27   91 1    
    56   28   29 2    
    57   28   30 1    
    58   30   31 1    
    59   30   32 1    
    60   30   92 1    
    61   31   93 1    
    62   31   94 1    
    63   31   95 1    
    64   32   33 am   BACKBONE|DICT|INTERRES
    65   32   96 1    
    66   33   34 2    
    67   33   35 1    
    68   35   36 1    
    69   35   37 1    
    70   35   97 1    
    71   36   98 1    
    72   36   99 1    
    73   36  100 1    
    74   37   38 am   BACKBONE|DICT|INTERRES
    75   37  101 1    
    76   38   39 2    
    77   38   40 1    
    78   40   41 1    
    79   40   42 1    
    80   40  102 1    
    81   41  103 1    
    82   41  104 1    
    83   41  105 1    
    84   42   43 am   BACKBONE|DICT|INTERRES
    85   42  106 1    
    86   43   44 2    
    87   43   45 1    
    88   45   46 1    
    89   45   49 1    
    90   45  107 1    
    91   46   47 1    
    92   46  108 1    
    93   46  109 1    
    94   47   48 1    
    95   48  110 1    
    96   48  111 1    
    97   49   50 am   BACKBONE|DICT|INTERRES
    98   49  112 1    
    99   50   51 2    
   100   50   52 1    
   101   52   53 1    
   102   52   54 1    
   103   52  113 1    
   104   53  114 1    
   105   53  115 1    
   106   53  116 1    
   107   54   55 am   BACKBONE|DICT|INTERRES
   108   54  117 1    
   109   55   56 2    
   110   55   57 1    
   111   57   58 1    
   112   57   59 1    
   113   57  118 1    
   114   58  119 1    
   115   58  120 1    
   116   58  121 1    
   117   59   60 am   BACKBONE|DICT|INTERRES
   118   59  122 1    
   119   60   61 2    
   120   60   62 1    
   121   62   63 1    
   122   62   64 1    
   123   62  123 1    
   124   63  124 1    
   125   63  125 1    
   126   63  126 1    
   127   64   65 am   BACKBONE|DICT|INTERRES
   128   64  127 1    
   129   65   66 2    
@<TRIPOS>SUBSTRUCTURE
     1 UNK         1 GROUP             0       ****    0 ROOT    
