@<TRIPOS>MOLECULE
3R135
127   129    1
SMALL
USER_CHARGES


@<TRIPOS>ATOM
      1 CA        -85.4006   27.7239  -72.7990 C.3       0 UNK        -0.1998 
      2 C         -83.9370   27.6874  -73.2110 C.2       0 UNK         0.4909 
      3 O         -83.5124   28.4905  -74.0434 O.2       0 UNK        -0.5240 
      4 N         -83.1580   26.7603  -72.6397 N.am      1 UNK        -0.4739 
      5 CA        -81.7307   26.5697  -72.9184 C.3       1 UNK         0.0864 
      6 C6        -80.9879   25.9064  -71.7279 C.3       11 UNK        -0.0881 
      7 S7        -81.1491   26.8461  -70.1703 S.3       11 UNK        -0.2682 
      8 C8        -79.4071   27.0085  -69.6336 C.3       11 UNK         0.0289 
      9 C9        -78.5301   27.9576  -70.4553 C.ar      11 UNK        -0.0687 
     10 C10       -79.0592   28.8842  -71.3640 C.ar      11 UNK        -0.0823 
     11 C11       -78.2183   29.7230  -72.1002 C.ar      11 UNK        -0.0830 
     12 C12       -76.8393   29.6753  -71.8872 C.ar      11 UNK        -0.1021 
     13 C13       -76.2933   28.7519  -70.9946 C.ar      11 UNK        -0.0753 
     14 C14       -77.1419   27.8993  -70.2813 C.ar      11 UNK        -0.0933 
     15 C15       -74.7839   28.6563  -70.8441 C.3       11 UNK         0.0166 
     16 S16       -74.0766   27.6851  -72.2085 S.3       11 UNK        -0.2615 
     17 C17       -72.2944   27.9856  -71.9885 C.3       11 UNK        -0.0865 
     18 CA        -71.7738   29.1372  -72.8874 C.3       10 UNK         0.0862 
     19 C         -70.3042   29.5003  -72.5174 C.2       10 UNK         0.5551 
     20 N         -69.3253   29.3601  -73.4037 N.am      10 UNK        -0.7319 
     21 O         -70.0482   29.9284  -71.3945 O.2       10 UNK        -0.5018 
     22 N         -71.9981   28.8670  -74.3182 N.am      10 UNK        -0.4509 
     23 C         -71.9877   29.8058  -75.2761 C.2       10 UNK         0.4899 
     24 O         -71.9150   31.0129  -75.0375 O.2       10 UNK        -0.4839 
     25 CA        -72.0393   29.3256  -76.7456 C.3       9 UNK         0.0222 
     26 CB        -71.4204   30.3460  -77.7236 C.3       9 UNK        -0.1966 
     27 N         -71.4489   27.9982  -76.9593 N.am      9 UNK        -0.4218 
     28 C         -70.2230   27.5797  -76.6030 C.2       9 UNK         0.5020 
     29 O         -69.3600   28.3247  -76.1349 O.2       9 UNK        -0.5274 
     30 CA        -69.9200   26.0714  -76.7498 C.3       8 UNK         0.0270 
     31 CB        -68.9629   25.5642  -75.6497 C.3       8 UNK        -0.1976 
     32 N         -71.1188   25.2209  -76.8142 N.am      8 UNK        -0.4313 
     33 C         -72.1086   25.1334  -75.9115 C.2       8 UNK         0.5041 
     34 O         -72.1291   25.7513  -74.8448 O.2       8 UNK        -0.5577 
     35 CA        -73.3100   24.2584  -76.3174 C.3       7 UNK         0.0284 
     36 CB        -73.7870   23.3957  -75.1361 C.3       7 UNK        -0.1958 
     37 N         -74.4460   25.0390  -76.8239 N.am      7 UNK        -0.4454 
     38 C         -74.4242   25.9969  -77.7642 C.2       7 UNK         0.5089 
     39 O         -73.4122   26.3504  -78.3705 O.2       7 UNK        -0.5125 
     40 CA        -75.7586   26.6929  -78.0876 C.3       6 UNK         0.0408 
     41 CB        -76.4794   25.9681  -79.2342 C.3       6 UNK        -0.1791 
     42 N         -76.6595   26.8012  -76.9383 N.am      6 UNK        -0.4762 
     43 C         -76.4135   27.5269  -75.8357 C.2       6 UNK         0.5007 
     44 O         -75.4000   28.2085  -75.6819 O.2       6 UNK        -0.5032 
     45 CA        -77.4733   27.4587  -74.7183 C.3       5 UNK         0.0783 
     46 C46       -78.6515   28.4386  -74.9729 C.3       11 UNK        -0.0857 
     47 S47       -78.1894   30.2017  -74.8320 S.3       11 UNK        -0.2512 
     48 C48       -78.7935   30.6420  -73.1671 C.3       11 UNK         0.0225 
     49 N         -77.9382   26.0747  -74.5664 N.am      5 UNK        -0.4615 
     50 C         -77.3037   25.1406  -73.8407 C.2       4 UNK         0.5053 
     51 O         -76.3735   25.3877  -73.0792 O.2       4 UNK        -0.5105 
     52 CA        -77.7411   23.6717  -73.9953 C.3       4 UNK         0.0263 
     53 CB        -78.4359   23.1457  -72.7283 C.3       4 UNK        -0.1981 
     54 N         -78.5960   23.4436  -75.1613 N.am      4 UNK        -0.4224 
     55 C         -78.1319   23.3236  -76.4137 C.2       3 UNK         0.4895 
     56 O         -76.9361   23.3538  -76.7015 O.2       3 UNK        -0.5091 
     57 CA        -79.1708   23.2042  -77.5442 C.3       3 UNK         0.0250 
     58 CB        -79.5119   21.7292  -77.8065 C.3       3 UNK        -0.1996 
     59 N         -80.4055   23.9547  -77.2942 N.am      3 UNK        -0.4254 
     60 C         -80.4699   25.2773  -77.0869 C.2       2 UNK         0.5004 
     61 O         -79.4813   26.0118  -77.1080 O.2       2 UNK        -0.5226 
     62 CA        -81.8425   25.8834  -76.7350 C.3       2 UNK         0.0269 
     63 CB        -83.0312   24.9179  -76.9447 C.3       2 UNK        -0.1926 
     64 N         -81.8699   26.4221  -75.3677 N.am      2 UNK        -0.4687 
     65 C         -81.5520   25.7789  -74.2336 C.2       1 UNK         0.5165 
     66 O         -81.1652   24.6090  -74.2013 O.2       1 UNK        -0.5079 
     67 H67       -85.6328   26.9649  -72.0522 H         1 UNK         0.0900 
     68 H68       -86.0383   27.5538  -73.6660 H         1 UNK         0.0900 
     69 H69       -85.6475   28.6988  -72.3797 H         1 UNK         0.0900 
     70 H70       -83.5576   26.1200  -71.9681 H         1 UNK         0.2959 
     71 H71       -81.2815   27.5515  -73.0724 H         1 UNK         0.1079 
     72 H72       -81.3613   24.8959  -71.5506 H         1 UNK         0.0837 
     73 H73       -79.9277   25.8061  -71.9665 H         1 UNK         0.0837 
     74 H74       -79.4054   27.3576  -68.6003 H         1 UNK         0.0685 
     75 H75       -78.9573   26.0142  -69.6219 H         1 UNK         0.0685 
     76 H76       -80.1258   28.9510  -71.5177 H         1 UNK         0.1434 
     77 H77       -76.1845   30.3162  -72.4625 H         1 UNK         0.1329 
     78 H78       -76.7177   27.1794  -69.5947 H         1 UNK         0.1335 
     79 H79       -74.5177   28.1961  -69.8914 H         1 UNK         0.0680 
     80 H80       -74.3498   29.6574  -70.8431 H         1 UNK         0.0680 
     81 H81       -71.7632   27.0601  -72.2192 H         1 UNK         0.1032 
     82 H82       -72.1009   28.1901  -70.9336 H         1 UNK         0.1032 
     83 H83       -72.3601   30.0234  -72.6367 H         1 UNK         0.0461 
     84 H84       -68.3858   29.6070  -73.1379 H         1 UNK         0.3453 
     85 H85       -69.5054   29.0140  -74.3418 H         1 UNK         0.3453 
     86 H86       -72.0809   27.8895  -74.5787 H         1 UNK         0.2984 
     87 H87       -73.0970   29.2268  -76.9934 H         1 UNK         0.0554 
     88 H88       -71.4873   29.9986  -78.7545 H         1 UNK         0.0847 
     89 H89       -70.3695   30.5318  -77.4991 H         1 UNK         0.0847 
     90 H90       -71.9389   31.3042  -77.6731 H         1 UNK         0.0847 
     91 H91       -72.0810   27.3075  -77.3577 H         1 UNK         0.3141 
     92 H92       -69.4135   25.9598  -77.7095 H         1 UNK         0.0743 
     93 H93       -69.3806   25.7118  -74.6531 H         1 UNK         0.0784 
     94 H94       -68.7468   24.5026  -75.7693 H         1 UNK         0.0784 
     95 H95       -68.0090   26.0921  -75.6831 H         1 UNK         0.0784 
     96 H96       -71.2382   24.7187  -77.6841 H         1 UNK         0.3213 
     97 H97       -72.9958   23.5846  -77.1167 H         1 UNK         0.0855 
     98 H98       -74.1885   24.0088  -74.3277 H         1 UNK         0.0814 
     99 H99       -72.9650   22.8099  -74.7227 H         1 UNK         0.0814 
    100 H100      -74.5622   22.6935  -75.4427 H         1 UNK         0.0814 
    101 H101      -75.3536   24.7855  -76.4524 H         1 UNK         0.3105 
    102 H102      -75.5282   27.7073  -78.4198 H         1 UNK         0.0547 
    103 H103      -75.8573   25.9434  -80.1298 H         1 UNK         0.0837 
    104 H104      -76.7141   24.9359  -78.9742 H         1 UNK         0.0837 
    105 H105      -77.4110   26.4682  -79.4997 H         1 UNK         0.0837 
    106 H106      -77.5564   26.3298  -77.0135 H         1 UNK         0.3020 
    107 H107      -76.9759   27.7523  -73.7922 H         1 UNK         0.1245 
    108 H108      -79.4557   28.2394  -74.2674 H         1 UNK         0.0781 
    109 H109      -79.0843   28.2842  -75.9619 H         1 UNK         0.0781 
    110 H110      -79.8844   30.6132  -73.1658 H         1 UNK         0.0836 
    111 H111      -78.5117   31.6723  -72.9457 H         1 UNK         0.0836 
    112 H112      -78.6666   25.7831  -75.2061 H         1 UNK         0.3022 
    113 H113      -76.8252   23.0900  -74.1212 H         1 UNK         0.0747 
    114 H114      -78.5898   22.0682  -72.7853 H         1 UNK         0.0793 
    115 H115      -77.8324   23.3383  -71.8401 H         1 UNK         0.0793 
    116 H116      -79.4072   23.6084  -72.5690 H         1 UNK         0.0793 
    117 H117      -79.5978   23.4834  -75.0024 H         1 UNK         0.3047 
    118 H118      -78.7173   23.6148  -78.4483 H         1 UNK         0.0822 
    119 H119      -80.1722   21.6207  -78.6672 H         1 UNK         0.0807 
    120 H120      -79.9998   21.2676  -76.9470 H         1 UNK         0.0807 
    121 H121      -78.6102   21.1524  -78.0180 H         1 UNK         0.0807 
    122 H122      -81.2593   23.4193  -77.2303 H         1 UNK         0.2946 
    123 H123      -81.9774   26.7295  -77.4110 H         1 UNK         0.1144 
    124 H124      -83.0613   24.5411  -77.9681 H         1 UNK         0.0793 
    125 H125      -83.9788   25.4274  -76.7687 H         1 UNK         0.0793 
    126 H126      -82.9942   24.0607  -76.2713 H         1 UNK         0.0793 
    127 H127      -82.2263   27.3677  -75.2727 H         1 UNK         0.2896 
@<TRIPOS>BOND
     1    1    2 1    
     2    1   67 1    
     3    1   68 1    
     4    1   69 1    
     5    2    3 2    
     6    2    4 am   BACKBONE|DICT|INTERRES
     7    4    5 1    
     8    4   70 1    
     9    5    6 1    
    10    5   65 1    
    11    5   71 1    
    12    6    7 1    
    13    6   72 1    
    14    6   73 1    
    15    7    8 1    
    16    8    9 1    
    17    8   74 1    
    18    8   75 1    
    19    9   10 ar   
    20    9   14 ar   
    21   10   11 ar   
    22   10   76 1    
    23   11   12 ar   
    24   11   48 1    
    25   12   13 ar   
    26   12   77 1    
    27   13   14 ar   
    28   13   15 1    
    29   14   78 1    
    30   15   16 1    
    31   15   79 1    
    32   15   80 1    
    33   16   17 1    
    34   17   18 1    
    35   17   81 1    
    36   17   82 1    
    37   18   19 1    
    38   18   22 1    
    39   18   83 1    
    40   19   20 am   BACKBONE|DICT|INTERRES
    41   19   21 2    
    42   20   84 1    
    43   20   85 1    
    44   22   23 am   BACKBONE|DICT|INTERRES
    45   22   86 1    
    46   23   24 2    
    47   23   25 1    
    48   25   26 1    
    49   25   27 1    
    50   25   87 1    
    51   26   88 1    
    52   26   89 1    
    53   26   90 1    
    54   27   28 am   BACKBONE|DICT|INTERRES
    55   27   91 1    
    56   28   29 2    
    57   28   30 1    
    58   30   31 1    
    59   30   32 1    
    60   30   92 1    
    61   31   93 1    
    62   31   94 1    
    63   31   95 1    
    64   32   33 am   BACKBONE|DICT|INTERRES
    65   32   96 1    
    66   33   34 2    
    67   33   35 1    
    68   35   36 1    
    69   35   37 1    
    70   35   97 1    
    71   36   98 1    
    72   36   99 1    
    73   36  100 1    
    74   37   38 am   BACKBONE|DICT|INTERRES
    75   37  101 1    
    76   38   39 2    
    77   38   40 1    
    78   40   41 1    
    79   40   42 1    
    80   40  102 1    
    81   41  103 1    
    82   41  104 1    
    83   41  105 1    
    84   42   43 am   BACKBONE|DICT|INTERRES
    85   42  106 1    
    86   43   44 2    
    87   43   45 1    
    88   45   46 1    
    89   45   49 1    
    90   45  107 1    
    91   46   47 1    
    92   46  108 1    
    93   46  109 1    
    94   47   48 1    
    95   48  110 1    
    96   48  111 1    
    97   49   50 am   BACKBONE|DICT|INTERRES
    98   49  112 1    
    99   50   51 2    
   100   50   52 1    
   101   52   53 1    
   102   52   54 1    
   103   52  113 1    
   104   53  114 1    
   105   53  115 1    
   106   53  116 1    
   107   54   55 am   BACKBONE|DICT|INTERRES
   108   54  117 1    
   109   55   56 2    
   110   55   57 1    
   111   57   58 1    
   112   57   59 1    
   113   57  118 1    
   114   58  119 1    
   115   58  120 1    
   116   58  121 1    
   117   59   60 am   BACKBONE|DICT|INTERRES
   118   59  122 1    
   119   60   61 2    
   120   60   62 1    
   121   62   63 1    
   122   62   64 1    
   123   62  123 1    
   124   63  124 1    
   125   63  125 1    
   126   63  126 1    
   127   64   65 am   BACKBONE|DICT|INTERRES
   128   64  127 1    
   129   65   66 2    
@<TRIPOS>SUBSTRUCTURE
     1 UNK         1 GROUP             0       ****    0 ROOT    
