@<TRIPOS>MOLECULE
3R135
127   129    1
SMALL
USER_CHARGES


@<TRIPOS>ATOM
      1 CA        -77.4928   28.1006  -70.9213 C.3       0 UNK        -0.1998 
      2 C         -78.9774   27.8127  -70.7684 C.2       0 UNK         0.4909 
      3 O         -79.4238   27.4344  -69.6851 O.2       0 UNK        -0.5240 
      4 N         -79.7453   27.9760  -71.8536 N.am      1 UNK        -0.4739 
      5 CA        -81.1941   27.7206  -71.8996 C.3       1 UNK         0.0864 
      6 C6        -81.8871   28.4579  -73.0745 C.3       11 UNK        -0.0881 
      7 S7        -81.6555   30.2678  -73.0215 S.3       11 UNK        -0.2682 
      8 C8        -80.7152   30.5738  -74.5510 C.3       11 UNK         0.0289 
      9 C9        -79.2833   30.0730  -74.4417 C.ar      11 UNK        -0.0687 
     10 C10       -78.9197   28.8375  -74.9902 C.ar      11 UNK        -0.0823 
     11 C11       -77.6069   28.3728  -74.8736 C.ar      11 UNK        -0.0830 
     12 C12       -76.6565   29.1594  -74.2231 C.ar      11 UNK        -0.1021 
     13 C13       -77.0015   30.3999  -73.6864 C.ar      11 UNK        -0.0753 
     14 C14       -78.3190   30.8526  -73.7935 C.ar      11 UNK        -0.0933 
     15 C15       -75.9364   31.2354  -72.9983 C.3       11 UNK         0.0166 
     16 S16       -74.8447   32.0146  -74.2259 S.3       11 UNK        -0.2615 
     17 C17       -73.4558   32.5580  -73.1772 C.3       11 UNK        -0.0865 
     18 CA        -72.1485   31.7526  -73.4458 C.3       10 UNK         0.0862 
     19 C         -70.8981   32.4060  -72.7773 C.2       10 UNK         0.5551 
     20 N         -69.8988   31.6409  -72.3542 N.am      10 UNK        -0.7319 
     21 O         -70.8125   33.6270  -72.6679 O.2       10 UNK        -0.5018 
     22 N         -72.2811   30.3002  -73.2056 N.am      10 UNK        -0.4509 
     23 C         -72.5427   29.7095  -72.0314 C.2       10 UNK         0.4899 
     24 O         -72.7866   30.3318  -70.9975 O.2       10 UNK        -0.4839 
     25 CA        -72.4730   28.1707  -71.9560 C.3       9 UNK         0.0222 
     26 CB        -73.8353   27.5551  -71.5694 C.3       9 UNK        -0.1966 
     27 N         -71.8768   27.5039  -73.1265 N.am      9 UNK        -0.4218 
     28 C         -72.4168   27.3019  -74.3369 C.2       9 UNK         0.5020 
     29 O         -73.5349   27.6943  -74.6672 O.2       9 UNK        -0.5274 
     30 CA        -71.5516   26.5100  -75.3322 C.3       8 UNK         0.0270 
     31 CB        -71.3927   25.0482  -74.8757 C.3       8 UNK        -0.1976 
     32 N         -72.1275   26.5336  -76.6803 N.am      8 UNK        -0.4313 
     33 C         -71.9953   27.5547  -77.5396 C.2       8 UNK         0.5041 
     34 O         -71.3232   28.5587  -77.2944 O.2       8 UNK        -0.5577 
     35 CA        -72.6857   27.4505  -78.9143 C.3       7 UNK         0.0284 
     36 CB        -71.6369   27.2778  -80.0268 C.3       7 UNK        -0.1958 
     37 N         -73.6479   26.3500  -79.0062 N.am      7 UNK        -0.4454 
     38 C         -74.9502   26.4411  -78.7066 C.2       7 UNK         0.5089 
     39 O         -75.4991   27.4808  -78.3421 O.2       7 UNK        -0.5125 
     40 CA        -75.7933   25.1533  -78.8271 C.3       6 UNK         0.0408 
     41 CB        -75.1737   24.0789  -79.7488 C.3       6 UNK        -0.1791 
     42 N         -76.1111   24.5761  -77.5168 N.am      6 UNK        -0.4762 
     43 C         -75.2358   24.2414  -76.5535 C.2       6 UNK         0.5007 
     44 O         -74.0160   24.3536  -76.6747 O.2       6 UNK        -0.5032 
     45 CA        -75.8050   23.6629  -75.2402 C.3       5 UNK         0.0783 
     46 C46       -76.0241   24.7750  -74.1754 C.3       11 UNK        -0.0857 
     47 S47       -77.6135   25.6758  -74.3138 S.3       11 UNK        -0.2512 
     48 C48       -77.2030   27.0303  -75.4560 C.3       11 UNK         0.0225 
     49 N         -77.0092   22.8563  -75.4502 N.am      5 UNK        -0.4615 
     50 C         -77.1029   21.7508  -76.2012 C.2       4 UNK         0.5053 
     51 O         -76.1318   21.1697  -76.6853 O.2       4 UNK        -0.5105 
     52 CA        -78.5200   21.2102  -76.4791 C.3       4 UNK         0.0263 
     53 CB        -78.7664   19.9163  -75.6865 C.3       4 UNK        -0.1981 
     54 N         -79.5962   22.1610  -76.1763 N.am      4 UNK        -0.4224 
     55 C         -79.8081   23.3448  -76.7672 C.2       3 UNK         0.4895 
     56 O         -79.1212   23.7804  -77.6916 O.2       3 UNK        -0.5091 
     57 CA        -80.9242   24.2249  -76.1763 C.3       3 UNK         0.0250 
     58 CB        -82.3197   23.7464  -76.6213 C.3       3 UNK        -0.1996 
     59 N         -80.8330   24.3828  -74.7154 N.am      3 UNK        -0.4254 
     60 C         -81.0030   23.4673  -73.7472 C.2       2 UNK         0.5004 
     61 O         -81.3342   22.3001  -73.9589 O.2       2 UNK        -0.5226 
     62 CA        -80.6933   23.9018  -72.3041 C.3       2 UNK         0.0269 
     63 CB        -79.4102   23.2147  -71.8051 C.3       2 UNK        -0.1926 
     64 N         -80.5337   25.3527  -72.1689 N.am      2 UNK        -0.4687 
     65 C         -81.5373   26.2137  -71.9462 C.2       1 UNK         0.5165 
     66 O         -82.7080   25.8592  -71.8005 O.2       1 UNK        -0.5079 
     67 H67       -77.1096   27.6720  -71.8465 H         1 UNK         0.0900 
     68 H68       -76.9286   27.6687  -70.0951 H         1 UNK         0.0900 
     69 H69       -77.3135   29.1752  -70.9326 H         1 UNK         0.0900 
     70 H70       -79.3322   28.3306  -72.7068 H         1 UNK         0.2959 
     71 H71       -81.6279   28.1006  -70.9718 H         1 UNK         0.1079 
     72 H72       -81.5473   28.0643  -74.0331 H         1 UNK         0.0837 
     73 H73       -82.9639   28.2783  -73.0494 H         1 UNK         0.0837 
     74 H74       -81.2265   30.1116  -75.3970 H         1 UNK         0.0685 
     75 H75       -80.7099   31.6465  -74.7504 H         1 UNK         0.0685 
     76 H76       -79.6555   28.2346  -75.5043 H         1 UNK         0.1434 
     77 H77       -75.6376   28.8143  -74.1416 H         1 UNK         0.1329 
     78 H78       -78.5957   31.8106  -73.3750 H         1 UNK         0.1335 
     79 H79       -76.3883   32.0060  -72.3720 H         1 UNK         0.0680 
     80 H80       -75.3532   30.5957  -72.3352 H         1 UNK         0.0680 
     81 H81       -73.3013   33.6164  -73.3943 H         1 UNK         0.1032 
     82 H82       -73.7334   32.5139  -72.1232 H         1 UNK         0.1032 
     83 H83       -71.9445   31.8366  -74.5138 H         1 UNK         0.0461 
     84 H84       -69.9457   30.6398  -72.4509 H         1 UNK         0.3453 
     85 H85       -69.0903   32.0719  -71.9342 H         1 UNK         0.3453 
     86 H86       -72.1262   29.7085  -74.0089 H         1 UNK         0.2984 
     87 H87       -71.7877   27.9549  -71.1350 H         1 UNK         0.0554 
     88 H88       -74.6067   27.7685  -72.3079 H         1 UNK         0.0847 
     89 H89       -74.1866   27.9550  -70.6174 H         1 UNK         0.0847 
     90 H90       -73.7671   26.4730  -71.4598 H         1 UNK         0.0847 
     91 H91       -70.9412   27.1514  -72.9749 H         1 UNK         0.3141 
     92 H92       -70.5612   26.9691  -75.3675 H         1 UNK         0.0743 
     93 H93       -72.3560   24.5777  -74.6769 H         1 UNK         0.0784 
     94 H94       -70.8764   24.4496  -75.6265 H         1 UNK         0.0784 
     95 H95       -70.8086   24.9825  -73.9572 H         1 UNK         0.0784 
     96 H96       -72.7705   25.7771  -76.9011 H         1 UNK         0.3213 
     97 H97       -73.2040   28.3969  -79.0845 H         1 UNK         0.0855 
     98 H98       -71.0703   26.3533  -79.9090 H         1 UNK         0.0814 
     99 H99       -70.9209   28.1010  -80.0206 H         1 UNK         0.0814 
    100 H100      -72.1021   27.2647  -81.0127 H         1 UNK         0.0814 
    101 H101      -73.2811   25.4456  -79.2658 H         1 UNK         0.3105 
    102 H102      -76.7454   25.4517  -79.2687 H         1 UNK         0.0547 
    103 H103      -74.9420   24.4888  -80.7328 H         1 UNK         0.0837 
    104 H104      -74.2571   23.6535  -79.3392 H         1 UNK         0.0837 
    105 H105      -75.8708   23.2554  -79.9040 H         1 UNK         0.0837 
    106 H106      -77.0982   24.4224  -77.3406 H         1 UNK         0.3020 
    107 H107      -75.0362   22.9868  -74.8589 H         1 UNK         0.1245 
    108 H108      -75.1940   25.4847  -74.1559 H         1 UNK         0.0781 
    109 H109      -76.0186   24.3129  -73.1872 H         1 UNK         0.0781 
    110 H110      -77.7114   26.8669  -76.4073 H         1 UNK         0.0836 
    111 H111      -76.1351   27.0320  -75.6806 H         1 UNK         0.0836 
    112 H112      -77.8622   23.2583  -75.0916 H         1 UNK         0.3022 
    113 H113      -78.5726   20.9798  -77.5450 H         1 UNK         0.0747 
    114 H114      -79.7306   19.4743  -75.9383 H         1 UNK         0.0793 
    115 H115      -78.0022   19.1694  -75.9065 H         1 UNK         0.0793 
    116 H116      -78.7497   20.0945  -74.6103 H         1 UNK         0.0793 
    117 H117      -80.2136   21.9247  -75.4019 H         1 UNK         0.3047 
    118 H118      -80.7794   25.2255  -76.5876 H         1 UNK         0.0822 
    119 H119      -83.1016   24.4070  -76.2467 H         1 UNK         0.0807 
    120 H120      -82.5408   22.7367  -76.2747 H         1 UNK         0.0807 
    121 H121      -82.3969   23.7373  -77.7093 H         1 UNK         0.0807 
    122 H122      -80.5183   25.2922  -74.4094 H         1 UNK         0.2946 
    123 H123      -81.5253   23.5667  -71.6801 H         1 UNK         0.1144 
    124 H124      -79.1986   23.4774  -70.7685 H         1 UNK         0.0793 
    125 H125      -78.5411   23.4883  -72.4037 H         1 UNK         0.0793 
    126 H126      -79.5053   22.1287  -71.8485 H         1 UNK         0.0793 
    127 H127      -79.5988   25.7246  -72.2646 H         1 UNK         0.2896 
@<TRIPOS>BOND
     1    1    2 1    
     2    1   67 1    
     3    1   68 1    
     4    1   69 1    
     5    2    3 2    
     6    2    4 am   BACKBONE|DICT|INTERRES
     7    4    5 1    
     8    4   70 1    
     9    5    6 1    
    10    5   65 1    
    11    5   71 1    
    12    6    7 1    
    13    6   72 1    
    14    6   73 1    
    15    7    8 1    
    16    8    9 1    
    17    8   74 1    
    18    8   75 1    
    19    9   10 ar   
    20    9   14 ar   
    21   10   11 ar   
    22   10   76 1    
    23   11   12 ar   
    24   11   48 1    
    25   12   13 ar   
    26   12   77 1    
    27   13   14 ar   
    28   13   15 1    
    29   14   78 1    
    30   15   16 1    
    31   15   79 1    
    32   15   80 1    
    33   16   17 1    
    34   17   18 1    
    35   17   81 1    
    36   17   82 1    
    37   18   19 1    
    38   18   22 1    
    39   18   83 1    
    40   19   20 am   BACKBONE|DICT|INTERRES
    41   19   21 2    
    42   20   84 1    
    43   20   85 1    
    44   22   23 am   BACKBONE|DICT|INTERRES
    45   22   86 1    
    46   23   24 2    
    47   23   25 1    
    48   25   26 1    
    49   25   27 1    
    50   25   87 1    
    51   26   88 1    
    52   26   89 1    
    53   26   90 1    
    54   27   28 am   BACKBONE|DICT|INTERRES
    55   27   91 1    
    56   28   29 2    
    57   28   30 1    
    58   30   31 1    
    59   30   32 1    
    60   30   92 1    
    61   31   93 1    
    62   31   94 1    
    63   31   95 1    
    64   32   33 am   BACKBONE|DICT|INTERRES
    65   32   96 1    
    66   33   34 2    
    67   33   35 1    
    68   35   36 1    
    69   35   37 1    
    70   35   97 1    
    71   36   98 1    
    72   36   99 1    
    73   36  100 1    
    74   37   38 am   BACKBONE|DICT|INTERRES
    75   37  101 1    
    76   38   39 2    
    77   38   40 1    
    78   40   41 1    
    79   40   42 1    
    80   40  102 1    
    81   41  103 1    
    82   41  104 1    
    83   41  105 1    
    84   42   43 am   BACKBONE|DICT|INTERRES
    85   42  106 1    
    86   43   44 2    
    87   43   45 1    
    88   45   46 1    
    89   45   49 1    
    90   45  107 1    
    91   46   47 1    
    92   46  108 1    
    93   46  109 1    
    94   47   48 1    
    95   48  110 1    
    96   48  111 1    
    97   49   50 am   BACKBONE|DICT|INTERRES
    98   49  112 1    
    99   50   51 2    
   100   50   52 1    
   101   52   53 1    
   102   52   54 1    
   103   52  113 1    
   104   53  114 1    
   105   53  115 1    
   106   53  116 1    
   107   54   55 am   BACKBONE|DICT|INTERRES
   108   54  117 1    
   109   55   56 2    
   110   55   57 1    
   111   57   58 1    
   112   57   59 1    
   113   57  118 1    
   114   58  119 1    
   115   58  120 1    
   116   58  121 1    
   117   59   60 am   BACKBONE|DICT|INTERRES
   118   59  122 1    
   119   60   61 2    
   120   60   62 1    
   121   62   63 1    
   122   62   64 1    
   123   62  123 1    
   124   63  124 1    
   125   63  125 1    
   126   63  126 1    
   127   64   65 am   BACKBONE|DICT|INTERRES
   128   64  127 1    
   129   65   66 2    
@<TRIPOS>SUBSTRUCTURE
     1 UNK         1 GROUP             0       ****    0 ROOT    
