@<TRIPOS>MOLECULE
3R135
127   129    1
SMALL
USER_CHARGES


@<TRIPOS>ATOM
      1 CA        -77.0444   31.0446  -75.6586 C.3       0 UNK        -0.1998 
      2 C         -77.9587   30.4161  -74.6188 C.2       0 UNK         0.4909 
      3 O         -77.8694   30.7590  -73.4423 O.2       0 UNK        -0.5240 
      4 N         -78.8402   29.5116  -75.0541 N.am      1 UNK        -0.4739 
      5 CA        -79.7890   28.7511  -74.2431 C.3       1 UNK         0.0864 
      6 C6        -80.8878   29.6500  -73.6097 C.3       11 UNK        -0.0881 
      7 S7        -81.9900   28.7557  -72.4606 S.3       11 UNK        -0.2682 
      8 C8        -81.3509   29.2794  -70.8373 C.3       11 UNK         0.0289 
      9 C9        -79.9596   28.7266  -70.5639 C.ar      11 UNK        -0.0687 
     10 C10       -79.7740   27.3513  -70.3942 C.ar      11 UNK        -0.0823 
     11 C11       -78.4993   26.8328  -70.1503 C.ar      11 UNK        -0.0830 
     12 C12       -77.4178   27.7079  -70.0152 C.ar      11 UNK        -0.1021 
     13 C13       -77.5782   29.0759  -70.2418 C.ar      11 UNK        -0.0753 
     14 C14       -78.8555   29.5830  -70.5011 C.ar      11 UNK        -0.0933 
     15 C15       -76.3604   29.9881  -70.2685 C.3       11 UNK         0.0166 
     16 S16       -75.1812   29.4657  -71.5595 S.3       11 UNK        -0.2615 
     17 C17       -74.3205   31.0386  -71.8929 C.3       11 UNK        -0.0865 
     18 CA        -73.1184   30.9174  -72.8676 C.3       10 UNK         0.0862 
     19 C         -71.8875   30.2270  -72.2165 C.2       10 UNK         0.5551 
     20 N         -71.1785   30.9305  -71.3437 N.am      10 UNK        -0.7319 
     21 O         -71.5793   29.0641  -72.4721 O.2       10 UNK        -0.5018 
     22 N         -73.5081   30.2862  -74.1357 N.am      10 UNK        -0.4509 
     23 C         -72.9400   30.5429  -75.3187 C.2       10 UNK         0.4899 
     24 O         -72.0957   31.4220  -75.5022 O.2       10 UNK        -0.4839 
     25 CA        -73.4027   29.6524  -76.4846 C.3       9 UNK         0.0222 
     26 CB        -72.8735   30.1170  -77.8579 C.3       9 UNK        -0.1966 
     27 N         -73.0860   28.2417  -76.2472 N.am      9 UNK        -0.4218 
     28 C         -71.8733   27.6844  -76.0982 C.2       9 UNK         0.5020 
     29 O         -70.8082   28.3012  -76.1470 O.2       9 UNK        -0.5274 
     30 CA        -71.8419   26.1613  -75.8790 C.3       8 UNK         0.0270 
     31 CB        -72.0480   25.8308  -74.3920 C.3       8 UNK        -0.1976 
     32 N         -72.8342   25.4477  -76.6895 N.am      8 UNK        -0.4313 
     33 C         -72.8145   25.3738  -78.0293 C.2       8 UNK         0.5041 
     34 O         -71.9028   25.8183  -78.7281 O.2       8 UNK        -0.5577 
     35 CA        -74.0283   24.7165  -78.7104 C.3       7 UNK         0.0284 
     36 CB        -73.9125   23.1839  -78.6910 C.3       7 UNK        -0.1958 
     37 N         -75.3005   25.1288  -78.1122 N.am      7 UNK        -0.4454 
     38 C         -75.7922   26.3767  -78.1550 C.2       7 UNK         0.5089 
     39 O         -75.2645   27.3078  -78.7618 O.2       7 UNK        -0.5125 
     40 CA        -77.0803   26.6345  -77.3583 C.3       6 UNK         0.0408 
     41 CB        -78.3067   26.2230  -78.1885 C.3       6 UNK        -0.1791 
     42 N         -77.0656   25.9334  -76.0701 N.am      6 UNK        -0.4762 
     43 C         -76.2693   26.2732  -75.0433 C.2       6 UNK         0.5007 
     44 O         -75.5504   27.2731  -75.0473 O.2       6 UNK        -0.5032 
     45 CA        -76.2095   25.3118  -73.8394 C.3       5 UNK         0.0783 
     46 C46       -77.1681   25.7495  -72.7133 C.3       11 UNK        -0.0857 
     47 S47       -76.9053   24.7757  -71.1865 S.3       11 UNK        -0.2512 
     48 C48       -78.2811   25.3251  -70.1122 C.3       11 UNK         0.0225 
     49 N         -76.4281   23.9228  -74.2461 N.am      5 UNK        -0.4615 
     50 C         -75.5119   23.1810  -74.8800 C.2       4 UNK         0.5053 
     51 O         -74.3914   23.5957  -75.1721 O.2       4 UNK        -0.5105 
     52 CA        -75.9189   21.7582  -75.3003 C.3       4 UNK         0.0263 
     53 CB        -75.5536   20.7508  -74.1993 C.3       4 UNK        -0.1981 
     54 N         -77.3411   21.6291  -75.6282 N.am      4 UNK        -0.4224 
     55 C         -77.9664   22.3013  -76.6045 C.2       3 UNK         0.4895 
     56 O         -77.3917   23.0871  -77.3598 O.2       3 UNK        -0.5091 
     57 CA        -79.4890   22.1001  -76.7460 C.3       3 UNK         0.0250 
     58 CB        -80.0645   20.9821  -75.8457 C.3       3 UNK        -0.1996 
     59 N         -80.2412   23.3457  -76.5379 N.am      3 UNK        -0.4254 
     60 C         -80.1754   24.1604  -75.4739 C.2       2 UNK         0.5004 
     61 O         -79.4152   23.9908  -74.5179 O.2       2 UNK        -0.5226 
     62 CA        -81.1473   25.3470  -75.4633 C.3       2 UNK         0.0269 
     63 CB        -82.4745   24.9366  -74.8042 C.3       2 UNK        -0.1926 
     64 N         -80.5746   26.4622  -74.7060 N.am      2 UNK        -0.4687 
     65 C         -80.3889   27.6961  -75.1893 C.2       1 UNK         0.5165 
     66 O         -80.6801   28.0304  -76.3412 O.2       1 UNK        -0.5079 
     67 H67       -76.0525   31.2029  -75.2379 H         1 UNK         0.0900 
     68 H68       -76.9431   30.4131  -76.5411 H         1 UNK         0.0900 
     69 H69       -77.4386   32.0118  -75.9687 H         1 UNK         0.0900 
     70 H70       -78.9006   29.2909  -76.0407 H         1 UNK         0.2959 
     71 H71       -79.2257   28.2510  -73.4521 H         1 UNK         0.1079 
     72 H72       -80.4351   30.4818  -73.0698 H         1 UNK         0.0837 
     73 H73       -81.5005   30.1089  -74.3881 H         1 UNK         0.0837 
     74 H74       -82.0315   28.9257  -70.0617 H         1 UNK         0.0685 
     75 H75       -81.3603   30.3690  -70.7776 H         1 UNK         0.0685 
     76 H76       -80.6216   26.6856  -70.4858 H         1 UNK         0.1434 
     77 H77       -76.4277   27.3130  -69.8320 H         1 UNK         0.1329 
     78 H78       -78.9857   30.6415  -70.6804 H         1 UNK         0.1335 
     79 H79       -76.6660   31.0190  -70.4548 H         1 UNK         0.0680 
     80 H80       -75.8666   29.9750  -69.2961 H         1 UNK         0.0680 
     81 H81       -74.0074   31.4830  -70.9463 H         1 UNK         0.1032 
     82 H82       -75.0519   31.7301  -72.3149 H         1 UNK         0.1032 
     83 H83       -72.8070   31.9393  -73.0948 H         1 UNK         0.0461 
     84 H84       -71.4163   31.8851  -71.1233 H         1 UNK         0.3453 
     85 H85       -70.3813   30.4994  -70.9024 H         1 UNK         0.3453 
     86 H86       -74.1535   29.5121  -74.0542 H         1 UNK         0.2984 
     87 H87       -74.4907   29.7138  -76.5195 H         1 UNK         0.0554 
     88 H88       -73.1912   31.1381  -78.0715 H         1 UNK         0.0847 
     89 H89       -73.2528   29.4837  -78.6602 H         1 UNK         0.0847 
     90 H90       -71.7843   30.0997  -77.9044 H         1 UNK         0.0847 
     91 H91       -73.8962   27.6470  -76.1037 H         1 UNK         0.3141 
     92 H92       -70.8536   25.8021  -76.1734 H         1 UNK         0.0743 
     93 H93       -71.2858   26.3131  -73.7782 H         1 UNK         0.0784 
     94 H94       -73.0167   26.1776  -74.0325 H         1 UNK         0.0784 
     95 H95       -71.9834   24.7582  -74.2083 H         1 UNK         0.0784 
     96 H96       -73.5649   24.9494  -76.1860 H         1 UNK         0.3213 
     97 H97       -74.0366   25.0402  -79.7536 H         1 UNK         0.0855 
     98 H98       -73.8617   22.7919  -77.6757 H         1 UNK         0.0814 
     99 H99       -73.0096   22.8578  -79.2087 H         1 UNK         0.0814 
    100 H100      -74.7606   22.7142  -79.1898 H         1 UNK         0.0814 
    101 H101      -75.8498   24.4132  -77.6469 H         1 UNK         0.3105 
    102 H102      -77.1506   27.7060  -77.1592 H         1 UNK         0.0547 
    103 H103      -78.2521   25.1884  -78.5249 H         1 UNK         0.0837 
    104 H104      -78.3903   26.8438  -79.0813 H         1 UNK         0.0837 
    105 H105      -79.2314   26.3397  -77.6303 H         1 UNK         0.0837 
    106 H106      -77.5819   25.0655  -76.0114 H         1 UNK         0.3020 
    107 H107      -75.1947   25.3857  -73.4422 H         1 UNK         0.1245 
    108 H108      -78.2103   25.6640  -73.0186 H         1 UNK         0.0781 
    109 H109      -77.0000   26.8036  -72.4878 H         1 UNK         0.0781 
    110 H110      -78.0781   25.0173  -69.0858 H         1 UNK         0.0836 
    111 H111      -79.1854   24.7984  -70.4213 H         1 UNK         0.0836 
    112 H112      -77.3562   23.5494  -74.0814 H         1 UNK         0.3022 
    113 H113      -75.3504   21.5056  -76.1974 H         1 UNK         0.0747 
    114 H114      -75.7553   19.7267  -74.5141 H         1 UNK         0.0793 
    115 H115      -74.4919   20.8094  -73.9547 H         1 UNK         0.0793 
    116 H116      -76.1103   20.9373  -73.2799 H         1 UNK         0.0793 
    117 H117      -77.8914   21.0208  -75.0395 H         1 UNK         0.3047 
    118 H118      -79.6544   21.8062  -77.7836 H         1 UNK         0.0822 
    119 H119      -81.1248   20.8295  -76.0481 H         1 UNK         0.0807 
    120 H120      -79.9677   21.2144  -74.7843 H         1 UNK         0.0807 
    121 H121      -79.5698   20.0273  -76.0297 H         1 UNK         0.0807 
    122 H122      -80.8824   23.5845  -77.2817 H         1 UNK         0.2946 
    123 H123      -81.3458   25.6408  -76.4965 H         1 UNK         0.1144 
    124 H124      -83.1831   25.7651  -74.7952 H         1 UNK         0.0793 
    125 H125      -82.3293   24.6109  -73.7732 H         1 UNK         0.0793 
    126 H126      -82.9448   24.1136  -75.3440 H         1 UNK         0.0793 
    127 H127      -80.2786   26.2393  -73.7661 H         1 UNK         0.2896 
@<TRIPOS>BOND
     1    1    2 1    
     2    1   67 1    
     3    1   68 1    
     4    1   69 1    
     5    2    3 2    
     6    2    4 am   BACKBONE|DICT|INTERRES
     7    4    5 1    
     8    4   70 1    
     9    5    6 1    
    10    5   65 1    
    11    5   71 1    
    12    6    7 1    
    13    6   72 1    
    14    6   73 1    
    15    7    8 1    
    16    8    9 1    
    17    8   74 1    
    18    8   75 1    
    19    9   10 ar   
    20    9   14 ar   
    21   10   11 ar   
    22   10   76 1    
    23   11   12 ar   
    24   11   48 1    
    25   12   13 ar   
    26   12   77 1    
    27   13   14 ar   
    28   13   15 1    
    29   14   78 1    
    30   15   16 1    
    31   15   79 1    
    32   15   80 1    
    33   16   17 1    
    34   17   18 1    
    35   17   81 1    
    36   17   82 1    
    37   18   19 1    
    38   18   22 1    
    39   18   83 1    
    40   19   20 am   BACKBONE|DICT|INTERRES
    41   19   21 2    
    42   20   84 1    
    43   20   85 1    
    44   22   23 am   BACKBONE|DICT|INTERRES
    45   22   86 1    
    46   23   24 2    
    47   23   25 1    
    48   25   26 1    
    49   25   27 1    
    50   25   87 1    
    51   26   88 1    
    52   26   89 1    
    53   26   90 1    
    54   27   28 am   BACKBONE|DICT|INTERRES
    55   27   91 1    
    56   28   29 2    
    57   28   30 1    
    58   30   31 1    
    59   30   32 1    
    60   30   92 1    
    61   31   93 1    
    62   31   94 1    
    63   31   95 1    
    64   32   33 am   BACKBONE|DICT|INTERRES
    65   32   96 1    
    66   33   34 2    
    67   33   35 1    
    68   35   36 1    
    69   35   37 1    
    70   35   97 1    
    71   36   98 1    
    72   36   99 1    
    73   36  100 1    
    74   37   38 am   BACKBONE|DICT|INTERRES
    75   37  101 1    
    76   38   39 2    
    77   38   40 1    
    78   40   41 1    
    79   40   42 1    
    80   40  102 1    
    81   41  103 1    
    82   41  104 1    
    83   41  105 1    
    84   42   43 am   BACKBONE|DICT|INTERRES
    85   42  106 1    
    86   43   44 2    
    87   43   45 1    
    88   45   46 1    
    89   45   49 1    
    90   45  107 1    
    91   46   47 1    
    92   46  108 1    
    93   46  109 1    
    94   47   48 1    
    95   48  110 1    
    96   48  111 1    
    97   49   50 am   BACKBONE|DICT|INTERRES
    98   49  112 1    
    99   50   51 2    
   100   50   52 1    
   101   52   53 1    
   102   52   54 1    
   103   52  113 1    
   104   53  114 1    
   105   53  115 1    
   106   53  116 1    
   107   54   55 am   BACKBONE|DICT|INTERRES
   108   54  117 1    
   109   55   56 2    
   110   55   57 1    
   111   57   58 1    
   112   57   59 1    
   113   57  118 1    
   114   58  119 1    
   115   58  120 1    
   116   58  121 1    
   117   59   60 am   BACKBONE|DICT|INTERRES
   118   59  122 1    
   119   60   61 2    
   120   60   62 1    
   121   62   63 1    
   122   62   64 1    
   123   62  123 1    
   124   63  124 1    
   125   63  125 1    
   126   63  126 1    
   127   64   65 am   BACKBONE|DICT|INTERRES
   128   64  127 1    
   129   65   66 2    
@<TRIPOS>SUBSTRUCTURE
     1 UNK         1 GROUP             0       ****    0 ROOT    
