@<TRIPOS>MOLECULE
3R135
127   129    1
SMALL
USER_CHARGES


@<TRIPOS>ATOM
      1 CA        -85.7852   29.2258  -75.3961 C.3       0 UNK        -0.1998 
      2 C         -84.5849   28.3273  -75.1400 C.2       0 UNK         0.4909 
      3 O         -84.7560   27.1240  -74.9406 O.2       0 UNK        -0.5240 
      4 N         -83.3732   28.9015  -75.1549 N.am      1 UNK        -0.4739 
      5 CA        -82.0659   28.2607  -74.9405 C.3       1 UNK         0.0864 
      6 C6        -81.9593   27.5227  -73.5768 C.3       11 UNK        -0.0881 
      7 S7        -80.2325   27.2596  -73.0537 S.3       11 UNK        -0.2682 
      8 C8        -80.0573   28.5010  -71.7385 C.3       11 UNK         0.0289 
      9 C9        -78.6073   28.6270  -71.2963 C.ar      11 UNK        -0.0687 
     10 C10       -78.0146   27.6176  -70.5305 C.ar      11 UNK        -0.0823 
     11 C11       -76.6802   27.7244  -70.1245 C.ar      11 UNK        -0.0830 
     12 C12       -75.9432   28.8570  -70.4796 C.ar      11 UNK        -0.1021 
     13 C13       -76.5284   29.8768  -71.2345 C.ar      11 UNK        -0.0753 
     14 C14       -77.8590   29.7556  -71.6449 C.ar      11 UNK        -0.0933 
     15 C15       -75.7230   31.1142  -71.5896 C.3       11 UNK         0.0166 
     16 S16       -75.0837   31.0161  -73.2886 S.3       11 UNK        -0.2615 
     17 C17       -73.4778   31.8695  -73.1090 C.3       11 UNK        -0.0865 
     18 CA        -72.2586   30.9151  -73.2009 C.3       10 UNK         0.0862 
     19 C         -72.1316   29.9818  -71.9627 C.2       10 UNK         0.5551 
     20 N         -72.2628   28.6684  -72.0939 N.am      10 UNK        -0.7319 
     21 O         -71.8928   30.4654  -70.8588 O.2       10 UNK        -0.5018 
     22 N         -72.2137   30.2414  -74.5070 N.am      10 UNK        -0.4509 
     23 C         -71.0921   29.9057  -75.1523 C.2       10 UNK         0.4899 
     24 O         -69.9588   30.0396  -74.6873 O.2       10 UNK        -0.4839 
     25 CA        -71.2906   29.3720  -76.5778 C.3       9 UNK         0.0222 
     26 CB        -70.1405   29.7579  -77.5334 C.3       9 UNK        -0.1966 
     27 N         -71.5592   27.9332  -76.5871 N.am      9 UNK        -0.4218 
     28 C         -70.7145   26.9193  -76.3386 C.2       9 UNK         0.5020 
     29 O         -69.5285   27.0689  -76.0414 O.2       9 UNK        -0.5274 
     30 CA        -71.2617   25.4788  -76.4521 C.3       8 UNK         0.0270 
     31 CB        -71.0832   24.7191  -75.1258 C.3       8 UNK        -0.1976 
     32 N         -72.6663   25.3929  -76.8639 N.am      8 UNK        -0.4313 
     33 C         -73.1449   25.6622  -78.0866 C.2       8 UNK         0.5041 
     34 O         -72.4331   25.9257  -79.0560 O.2       8 UNK        -0.5577 
     35 CA        -74.6774   25.7009  -78.2435 C.3       7 UNK         0.0284 
     36 CB        -75.2060   24.3343  -78.7024 C.3       7 UNK        -0.1958 
     37 N         -75.3831   26.1280  -77.0270 N.am      7 UNK        -0.4454 
     38 C         -75.2389   27.3311  -76.4475 C.2       7 UNK         0.5089 
     39 O         -74.4980   28.2141  -76.8805 O.2       7 UNK        -0.5125 
     40 CA        -76.0081   27.5775  -75.1419 C.3       6 UNK         0.0408 
     41 CB        -77.4514   28.0071  -75.4255 C.3       6 UNK        -0.1791 
     42 N         -75.9973   26.4053  -74.2682 N.am      6 UNK        -0.4762 
     43 C         -74.9196   26.0062  -73.5777 C.2       6 UNK         0.5007 
     44 O         -73.8444   26.6076  -73.5872 O.2       6 UNK        -0.5032 
     45 CA        -75.0451   24.6727  -72.8078 C.3       5 UNK         0.0783 
     46 C46       -75.7676   24.8353  -71.4491 C.3       11 UNK        -0.0857 
     47 S47       -74.7603   25.7102  -70.2068 S.3       11 UNK        -0.2512 
     48 C48       -76.0358   26.6290  -69.2859 C.3       11 UNK         0.0225 
     49 N         -75.6904   23.6322  -73.6142 N.am      5 UNK        -0.4615 
     50 C         -75.2071   23.1372  -74.7608 C.2       4 UNK         0.5053 
     51 O         -74.1434   23.4912  -75.2639 O.2       4 UNK        -0.5105 
     52 CA        -76.0658   22.0869  -75.4850 C.3       4 UNK         0.0263 
     53 CB        -75.6826   20.6738  -75.0179 C.3       4 UNK        -0.1981 
     54 N         -77.5115   22.2759  -75.3307 N.am      4 UNK        -0.4224 
     55 C         -78.2026   23.3676  -75.6876 C.2       3 UNK         0.4895 
     56 O         -77.6944   24.3968  -76.1441 O.2       3 UNK        -0.5091 
     57 CA        -79.7134   23.2929  -75.4477 C.3       3 UNK         0.0250 
     58 CB        -80.0394   23.4970  -73.9571 C.3       3 UNK        -0.1996 
     59 N         -80.4003   24.3091  -76.2413 N.am      3 UNK        -0.4254 
     60 C         -81.6172   24.1663  -76.7800 C.2       2 UNK         0.5004 
     61 O         -82.2965   23.1432  -76.6695 O.2       2 UNK        -0.5226 
     62 CA        -82.1897   25.3902  -77.5161 C.3       2 UNK         0.0269 
     63 CB        -83.4730   25.0674  -78.3044 C.3       2 UNK        -0.1926 
     64 N         -82.4895   26.4360  -76.5401 N.am      2 UNK        -0.4687 
     65 C         -81.6263   27.3664  -76.1209 C.2       1 UNK         0.5165 
     66 O         -80.5176   27.5292  -76.6299 O.2       1 UNK        -0.5079 
     67 H67       -86.4661   29.1921  -74.5461 H         1 UNK         0.0900 
     68 H68       -86.3256   28.8864  -76.2794 H         1 UNK         0.0900 
     69 H69       -85.4927   30.2635  -75.5551 H         1 UNK         0.0900 
     70 H70       -83.3200   29.8908  -75.3574 H         1 UNK         0.2959 
     71 H71       -81.3574   29.0908  -74.9150 H         1 UNK         0.1079 
     72 H72       -82.4617   26.5542  -73.6116 H         1 UNK         0.0837 
     73 H73       -82.4760   28.0923  -72.8028 H         1 UNK         0.0837 
     74 H74       -80.6793   28.2197  -70.8875 H         1 UNK         0.0685 
     75 H75       -80.4323   29.4613  -72.0964 H         1 UNK         0.0685 
     76 H76       -78.5947   26.7458  -70.2600 H         1 UNK         0.1434 
     77 H77       -74.9106   28.9421  -70.1683 H         1 UNK         0.1329 
     78 H78       -78.3087   30.5419  -72.2358 H         1 UNK         0.1335 
     79 H79       -76.3403   32.0079  -71.4881 H         1 UNK         0.0680 
     80 H80       -74.9010   31.2271  -70.8811 H         1 UNK         0.0680 
     81 H81       -73.4107   32.6152  -73.9026 H         1 UNK         0.1032 
     82 H82       -73.4482   32.4438  -72.1812 H         1 UNK         0.1032 
     83 H83       -71.3790   31.5602  -73.1484 H         1 UNK         0.0461 
     84 H84       -72.1732   28.0848  -71.2788 H         1 UNK         0.3453 
     85 H85       -72.5455   28.2521  -72.9708 H         1 UNK         0.3453 
     86 H86       -73.1095   30.0626  -74.9390 H         1 UNK         0.2984 
     87 H87       -72.1920   29.8409  -76.9758 H         1 UNK         0.0554 
     88 H88       -70.3241   29.3907  -78.5431 H         1 UNK         0.0847 
     89 H89       -69.1776   29.3667  -77.2045 H         1 UNK         0.0847 
     90 H90       -70.0394   30.8420  -77.5952 H         1 UNK         0.0847 
     91 H91       -72.5270   27.6974  -76.7814 H         1 UNK         0.3141 
     92 H92       -70.6615   24.9744  -77.2119 H         1 UNK         0.0743 
     93 H93       -70.0402   24.7201  -74.8067 H         1 UNK         0.0784 
     94 H94       -71.6700   25.1673  -74.3236 H         1 UNK         0.0784 
     95 H95       -71.3876   23.6768  -75.2217 H         1 UNK         0.0784 
     96 H96       -73.3229   25.0832  -76.1529 H         1 UNK         0.3213 
     97 H97       -74.9089   26.4323  -79.0208 H         1 UNK         0.0855 
     98 H98       -74.8908   23.5396  -78.0285 H         1 UNK         0.0814 
     99 H99       -74.8219   24.0855  -79.6924 H         1 UNK         0.0814 
    100 H100      -76.2946   24.3206  -78.7619 H         1 UNK         0.0814 
    101 H101      -76.0455   25.4731  -76.6213 H         1 UNK         0.3105 
    102 H102      -75.5147   28.3985  -74.6188 H         1 UNK         0.0547 
    103 H103      -77.9430   28.3454  -74.5144 H         1 UNK         0.0837 
    104 H104      -77.4855   28.8356  -76.1340 H         1 UNK         0.0837 
    105 H105      -78.0379   27.1903  -75.8459 H         1 UNK         0.0837 
    106 H106      -76.8270   25.8290  -74.2638 H         1 UNK         0.3020 
    107 H107      -74.0271   24.3269  -72.6121 H         1 UNK         0.1245 
    108 H108      -75.9950   23.8544  -71.0283 H         1 UNK         0.0781 
    109 H109      -76.7301   25.3304  -71.5840 H         1 UNK         0.0781 
    110 H110      -75.5767   27.0793  -68.4046 H         1 UNK         0.0836 
    111 H111      -76.7851   25.9286  -68.9136 H         1 UNK         0.0836 
    112 H112      -76.5730   23.2786  -73.2770 H         1 UNK         0.3022 
    113 H113      -75.8458   22.1567  -76.5501 H         1 UNK         0.0747 
    114 H114      -76.2040   19.9091  -75.5941 H         1 UNK         0.0793 
    115 H115      -74.6133   20.4977  -75.1453 H         1 UNK         0.0793 
    116 H116      -75.9147   20.5183  -73.9635 H         1 UNK         0.0793 
    117 H117      -78.0221   21.4903  -74.9530 H         1 UNK         0.3047 
    118 H118      -80.0504   22.3015  -75.7589 H         1 UNK         0.0822 
    119 H119      -79.6116   22.7022  -73.3452 H         1 UNK         0.0807 
    120 H120      -81.1152   23.4947  -73.7805 H         1 UNK         0.0807 
    121 H121      -79.6430   24.4420  -73.5863 H         1 UNK         0.0807 
    122 H122      -79.8787   25.1645  -76.3945 H         1 UNK         0.2946 
    123 H123      -81.4358   25.7381  -78.2264 H         1 UNK         0.1144 
    124 H124      -83.2934   24.2792  -79.0368 H         1 UNK         0.0793 
    125 H125      -83.8312   25.9407  -78.8497 H         1 UNK         0.0793 
    126 H126      -84.2777   24.7299  -77.6498 H         1 UNK         0.0793 
    127 H127      -83.3797   26.3767  -76.0523 H         1 UNK         0.2896 
@<TRIPOS>BOND
     1    1    2 1    
     2    1   67 1    
     3    1   68 1    
     4    1   69 1    
     5    2    3 2    
     6    2    4 am   BACKBONE|DICT|INTERRES
     7    4    5 1    
     8    4   70 1    
     9    5    6 1    
    10    5   65 1    
    11    5   71 1    
    12    6    7 1    
    13    6   72 1    
    14    6   73 1    
    15    7    8 1    
    16    8    9 1    
    17    8   74 1    
    18    8   75 1    
    19    9   10 ar   
    20    9   14 ar   
    21   10   11 ar   
    22   10   76 1    
    23   11   12 ar   
    24   11   48 1    
    25   12   13 ar   
    26   12   77 1    
    27   13   14 ar   
    28   13   15 1    
    29   14   78 1    
    30   15   16 1    
    31   15   79 1    
    32   15   80 1    
    33   16   17 1    
    34   17   18 1    
    35   17   81 1    
    36   17   82 1    
    37   18   19 1    
    38   18   22 1    
    39   18   83 1    
    40   19   20 am   BACKBONE|DICT|INTERRES
    41   19   21 2    
    42   20   84 1    
    43   20   85 1    
    44   22   23 am   BACKBONE|DICT|INTERRES
    45   22   86 1    
    46   23   24 2    
    47   23   25 1    
    48   25   26 1    
    49   25   27 1    
    50   25   87 1    
    51   26   88 1    
    52   26   89 1    
    53   26   90 1    
    54   27   28 am   BACKBONE|DICT|INTERRES
    55   27   91 1    
    56   28   29 2    
    57   28   30 1    
    58   30   31 1    
    59   30   32 1    
    60   30   92 1    
    61   31   93 1    
    62   31   94 1    
    63   31   95 1    
    64   32   33 am   BACKBONE|DICT|INTERRES
    65   32   96 1    
    66   33   34 2    
    67   33   35 1    
    68   35   36 1    
    69   35   37 1    
    70   35   97 1    
    71   36   98 1    
    72   36   99 1    
    73   36  100 1    
    74   37   38 am   BACKBONE|DICT|INTERRES
    75   37  101 1    
    76   38   39 2    
    77   38   40 1    
    78   40   41 1    
    79   40   42 1    
    80   40  102 1    
    81   41  103 1    
    82   41  104 1    
    83   41  105 1    
    84   42   43 am   BACKBONE|DICT|INTERRES
    85   42  106 1    
    86   43   44 2    
    87   43   45 1    
    88   45   46 1    
    89   45   49 1    
    90   45  107 1    
    91   46   47 1    
    92   46  108 1    
    93   46  109 1    
    94   47   48 1    
    95   48  110 1    
    96   48  111 1    
    97   49   50 am   BACKBONE|DICT|INTERRES
    98   49  112 1    
    99   50   51 2    
   100   50   52 1    
   101   52   53 1    
   102   52   54 1    
   103   52  113 1    
   104   53  114 1    
   105   53  115 1    
   106   53  116 1    
   107   54   55 am   BACKBONE|DICT|INTERRES
   108   54  117 1    
   109   55   56 2    
   110   55   57 1    
   111   57   58 1    
   112   57   59 1    
   113   57  118 1    
   114   58  119 1    
   115   58  120 1    
   116   58  121 1    
   117   59   60 am   BACKBONE|DICT|INTERRES
   118   59  122 1    
   119   60   61 2    
   120   60   62 1    
   121   62   63 1    
   122   62   64 1    
   123   62  123 1    
   124   63  124 1    
   125   63  125 1    
   126   63  126 1    
   127   64   65 am   BACKBONE|DICT|INTERRES
   128   64  127 1    
   129   65   66 2    
@<TRIPOS>SUBSTRUCTURE
     1 UNK         1 GROUP             0       ****    0 ROOT    
