@<TRIPOS>MOLECULE
3R135
127   129    1
SMALL
USER_CHARGES


@<TRIPOS>ATOM
      1 CA        -84.6435   26.1810  -69.2794 C.3       0 UNK        -0.1998 
      2 C         -84.6871   26.2761  -70.7970 C.2       0 UNK         0.4909 
      3 O         -85.3301   25.4496  -71.4447 O.2       0 UNK        -0.5240 
      4 N         -84.0095   27.2801  -71.3685 N.am      1 UNK        -0.4739 
      5 CA        -83.9041   27.5152  -72.8151 C.3       1 UNK         0.0864 
      6 C6        -83.4391   28.9598  -73.1412 C.3       11 UNK        -0.0881 
      7 S7        -81.9882   29.5161  -72.1796 S.3       11 UNK        -0.2682 
      8 C8        -80.6653   29.3703  -73.4157 C.3       11 UNK         0.0289 
      9 C9        -79.2997   29.4796  -72.7586 C.ar      11 UNK        -0.0687 
     10 C10       -78.7934   28.3946  -72.0412 C.ar      11 UNK        -0.0823 
     11 C11       -77.5242   28.4579  -71.4631 C.ar      11 UNK        -0.0830 
     12 C12       -76.7722   29.6300  -71.5797 C.ar      11 UNK        -0.1021 
     13 C13       -77.2547   30.7212  -72.3147 C.ar      11 UNK        -0.0753 
     14 C14       -78.5285   30.6388  -72.8898 C.ar      11 UNK        -0.0933 
     15 C15       -76.4382   32.0003  -72.5225 C.3       11 UNK         0.0166 
     16 S16       -74.6318   31.8547  -72.2670 S.3       11 UNK        -0.2615 
     17 C17       -74.1510   30.6628  -73.5669 C.3       11 UNK        -0.0865 
     18 CA        -72.7776   29.9866  -73.2988 C.3       10 UNK         0.0862 
     19 C         -72.8428   28.8929  -72.1959 C.2       10 UNK         0.5551 
     20 N         -72.9165   29.2891  -70.9332 N.am      10 UNK        -0.7319 
     21 O         -72.8330   27.6937  -72.4632 O.2       10 UNK        -0.5018 
     22 N         -72.2357   29.4352  -74.5458 N.am      10 UNK        -0.4509 
     23 C         -71.1861   29.9040  -75.2289 C.2       10 UNK         0.4899 
     24 O         -70.5394   30.8988  -74.8958 O.2       10 UNK        -0.4839 
     25 CA        -70.8133   29.1405  -76.5164 C.3       9 UNK         0.0222 
     26 CB        -69.4275   29.5273  -77.0764 C.3       9 UNK        -0.1966 
     27 N         -70.9446   27.6852  -76.3816 N.am      9 UNK        -0.4218 
     28 C         -70.2539   26.8635  -75.5755 C.2       9 UNK         0.5020 
     29 O         -69.3355   27.2327  -74.8421 O.2       9 UNK        -0.5274 
     30 CA        -70.6499   25.3714  -75.5722 C.3       8 UNK         0.0270 
     31 CB        -71.2402   24.9703  -74.2104 C.3       8 UNK        -0.1976 
     32 N         -71.6077   25.0165  -76.6240 N.am      8 UNK        -0.4313 
     33 C         -71.2950   24.8056  -77.9099 C.2       8 UNK         0.5041 
     34 O         -70.1438   24.8160  -78.3465 O.2       8 UNK        -0.5577 
     35 CA        -72.4698   24.5776  -78.8773 C.3       7 UNK         0.0284 
     36 CB        -72.8108   23.0823  -78.9790 C.3       7 UNK        -0.1958 
     37 N         -73.6658   25.3320  -78.4892 N.am      7 UNK        -0.4454 
     38 C         -73.7868   26.6637  -78.5986 C.2       7 UNK         0.5089 
     39 O         -72.9221   27.3916  -79.0850 O.2       7 UNK        -0.5125 
     40 CA        -75.0608   27.2980  -78.0148 C.3       6 UNK         0.0408 
     41 CB        -76.1846   27.3185  -79.0616 C.3       6 UNK        -0.1791 
     42 N         -75.5164   26.6200  -76.7966 N.am      6 UNK        -0.4762 
     43 C         -74.8366   26.6376  -75.6374 C.2       6 UNK         0.5007 
     44 O         -73.7891   27.2643  -75.4910 O.2       6 UNK        -0.5032 
     45 CA        -75.3750   25.8052  -74.4548 C.3       5 UNK         0.0783 
     46 C46       -76.1001   26.7232  -73.4522 C.3       11 UNK        -0.0857 
     47 S47       -76.6864   25.8489  -71.9587 S.3       11 UNK        -0.2512 
     48 C48       -76.9276   27.2305  -70.7872 C.3       11 UNK         0.0225 
     49 N         -76.2227   24.6938  -74.8864 N.am      5 UNK        -0.4615 
     50 C         -75.8029   23.6422  -75.5998 C.2       4 UNK         0.5053 
     51 O         -74.6328   23.4818  -75.9491 O.2       4 UNK        -0.5105 
     52 CA        -76.8746   22.6275  -76.0381 C.3       4 UNK         0.0263 
     53 CB        -76.9218   21.4458  -75.0570 C.3       4 UNK        -0.1981 
     54 N         -78.2208   23.2005  -76.1711 N.am      4 UNK        -0.4224 
     55 C         -78.5583   24.2012  -76.9996 C.2       3 UNK         0.4895 
     56 O         -77.7607   24.7583  -77.7531 O.2       3 UNK        -0.5091 
     57 CA        -80.0182   24.6844  -76.9688 C.3       3 UNK         0.0250 
     58 CB        -80.8262   24.0173  -78.0933 C.3       3 UNK        -0.1996 
     59 N         -80.6914   24.4570  -75.6858 N.am      3 UNK        -0.4254 
     60 C         -80.4068   25.1116  -74.5513 C.2       2 UNK         0.5004 
     61 O         -79.5182   25.9587  -74.4525 O.2       2 UNK        -0.5226 
     62 CA        -81.2457   24.7408  -73.3151 C.3       2 UNK         0.0269 
     63 CB        -80.3429   24.2630  -72.1650 C.3       2 UNK        -0.1926 
     64 N         -82.0851   25.8456  -72.8415 N.am      2 UNK        -0.4687 
     65 C         -83.0591   26.4458  -73.5442 C.2       1 UNK         0.5165 
     66 O         -83.3352   26.1603  -74.7104 O.2       1 UNK        -0.5079 
     67 H67       -85.6511   26.2483  -68.8702 H         1 UNK         0.0900 
     68 H68       -84.0445   26.9774  -68.8381 H         1 UNK         0.0900 
     69 H69       -84.2149   25.2263  -68.9757 H         1 UNK         0.0900 
     70 H70       -83.5001   27.9364  -70.7922 H         1 UNK         0.2959 
     71 H71       -84.9122   27.4110  -73.2239 H         1 UNK         0.1079 
     72 H72       -83.2542   29.0844  -74.2104 H         1 UNK         0.0837 
     73 H73       -84.2528   29.6496  -72.9118 H         1 UNK         0.0837 
     74 H74       -80.7944   30.1405  -74.1777 H         1 UNK         0.0685 
     75 H75       -80.7407   28.4101  -73.9279 H         1 UNK         0.0685 
     76 H76       -79.3720   27.4839  -71.9703 H         1 UNK         0.1434 
     77 H77       -75.7918   29.6687  -71.1277 H         1 UNK         0.1329 
     78 H78       -78.9161   31.4757  -73.4548 H         1 UNK         0.1335 
     79 H79       -76.6049   32.3794  -73.5321 H         1 UNK         0.0680 
     80 H80       -76.8183   32.7621  -71.8408 H         1 UNK         0.0680 
     81 H81       -74.1103   31.2225  -74.5027 H         1 UNK         0.1032 
     82 H82       -74.9290   29.9115  -73.7097 H         1 UNK         0.1032 
     83 H83       -72.0878   30.7488  -72.9312 H         1 UNK         0.0461 
     84 H84       -72.9513   28.5966  -70.2025 H         1 UNK         0.3453 
     85 H85       -72.9487   30.2703  -70.7030 H         1 UNK         0.3453 
     86 H86       -72.6886   28.5787  -74.8632 H         1 UNK         0.2984 
     87 H87       -71.5557   29.4337  -77.2601 H         1 UNK         0.0554 
     88 H88       -69.3856   30.5908  -77.3144 H         1 UNK         0.0847 
     89 H89       -69.2044   28.9825  -77.9937 H         1 UNK         0.0847 
     90 H90       -68.6291   29.3243  -76.3622 H         1 UNK         0.0847 
     91 H91       -71.6999   27.2750  -76.9139 H         1 UNK         0.3141 
     92 H92       -69.7358   24.7944  -75.7271 H         1 UNK         0.0743 
     93 H93       -70.5229   25.1446  -73.4073 H         1 UNK         0.0784 
     94 H94       -72.1324   25.5494  -73.9746 H         1 UNK         0.0784 
     95 H95       -71.5059   23.9133  -74.1844 H         1 UNK         0.0784 
     96 H96       -72.5802   24.9568  -76.3537 H         1 UNK         0.3213 
     97 H97       -72.1557   24.9219  -79.8654 H         1 UNK         0.0855 
     98 H98       -73.1229   22.6694  -78.0192 H         1 UNK         0.0814 
     99 H99       -71.9446   22.5089  -79.3120 H         1 UNK         0.0814 
    100 H100      -73.6111   22.9049  -79.6975 H         1 UNK         0.0814 
    101 H101      -74.4136   24.8136  -78.0480 H         1 UNK         0.3105 
    102 H102      -74.8282   28.3325  -77.7526 H         1 UNK         0.0547 
    103 H103      -75.8925   27.9080  -79.9316 H         1 UNK         0.0837 
    104 H104      -76.4268   26.3168  -79.4176 H         1 UNK         0.0837 
    105 H105      -77.0960   27.7619  -78.6604 H         1 UNK         0.0837 
    106 H106      -76.3572   26.0569  -76.8741 H         1 UNK         0.3020 
    107 H107      -74.5070   25.3776  -73.9490 H         1 UNK         0.1245 
    108 H108      -76.9580   27.2010  -73.9302 H         1 UNK         0.0781 
    109 H109      -75.4351   27.5272  -73.1345 H         1 UNK         0.0781 
    110 H110      -77.5810   26.9051  -69.9768 H         1 UNK         0.0836 
    111 H111      -75.9656   27.4707  -70.3315 H         1 UNK         0.0836 
    112 H112      -77.2011   24.7647  -74.6423 H         1 UNK         0.3022 
    113 H113      -76.5794   22.2498  -77.0193 H         1 UNK         0.0747 
    114 H114      -75.9385   20.9838  -74.9556 H         1 UNK         0.0793 
    115 H115      -77.6071   20.6705  -75.4001 H         1 UNK         0.0793 
    116 H116      -77.2382   21.7598  -74.0613 H         1 UNK         0.0793 
    117 H117      -78.9437   22.8025  -75.5899 H         1 UNK         0.3047 
    118 H118      -80.0047   25.7612  -77.1525 H         1 UNK         0.0822 
    119 H119      -81.8398   24.4157  -78.1436 H         1 UNK         0.0807 
    120 H120      -80.8947   22.9371  -77.9577 H         1 UNK         0.0807 
    121 H121      -80.3624   24.1949  -79.0649 H         1 UNK         0.0807 
    122 H122      -81.4528   23.7931  -75.6887 H         1 UNK         0.2946 
    123 H123      -81.9126   23.9174  -73.5800 H         1 UNK         0.1144 
    124 H124      -79.7028   23.4397  -72.4850 H         1 UNK         0.0793 
    125 H125      -80.9310   23.9052  -71.3198 H         1 UNK         0.0793 
    126 H126      -79.6899   25.0590  -71.8059 H         1 UNK         0.0793 
    127 H127      -81.9311   26.1592  -71.8948 H         1 UNK         0.2896 
@<TRIPOS>BOND
     1    1    2 1    
     2    1   67 1    
     3    1   68 1    
     4    1   69 1    
     5    2    3 2    
     6    2    4 am   BACKBONE|DICT|INTERRES
     7    4    5 1    
     8    4   70 1    
     9    5    6 1    
    10    5   65 1    
    11    5   71 1    
    12    6    7 1    
    13    6   72 1    
    14    6   73 1    
    15    7    8 1    
    16    8    9 1    
    17    8   74 1    
    18    8   75 1    
    19    9   10 ar   
    20    9   14 ar   
    21   10   11 ar   
    22   10   76 1    
    23   11   12 ar   
    24   11   48 1    
    25   12   13 ar   
    26   12   77 1    
    27   13   14 ar   
    28   13   15 1    
    29   14   78 1    
    30   15   16 1    
    31   15   79 1    
    32   15   80 1    
    33   16   17 1    
    34   17   18 1    
    35   17   81 1    
    36   17   82 1    
    37   18   19 1    
    38   18   22 1    
    39   18   83 1    
    40   19   20 am   BACKBONE|DICT|INTERRES
    41   19   21 2    
    42   20   84 1    
    43   20   85 1    
    44   22   23 am   BACKBONE|DICT|INTERRES
    45   22   86 1    
    46   23   24 2    
    47   23   25 1    
    48   25   26 1    
    49   25   27 1    
    50   25   87 1    
    51   26   88 1    
    52   26   89 1    
    53   26   90 1    
    54   27   28 am   BACKBONE|DICT|INTERRES
    55   27   91 1    
    56   28   29 2    
    57   28   30 1    
    58   30   31 1    
    59   30   32 1    
    60   30   92 1    
    61   31   93 1    
    62   31   94 1    
    63   31   95 1    
    64   32   33 am   BACKBONE|DICT|INTERRES
    65   32   96 1    
    66   33   34 2    
    67   33   35 1    
    68   35   36 1    
    69   35   37 1    
    70   35   97 1    
    71   36   98 1    
    72   36   99 1    
    73   36  100 1    
    74   37   38 am   BACKBONE|DICT|INTERRES
    75   37  101 1    
    76   38   39 2    
    77   38   40 1    
    78   40   41 1    
    79   40   42 1    
    80   40  102 1    
    81   41  103 1    
    82   41  104 1    
    83   41  105 1    
    84   42   43 am   BACKBONE|DICT|INTERRES
    85   42  106 1    
    86   43   44 2    
    87   43   45 1    
    88   45   46 1    
    89   45   49 1    
    90   45  107 1    
    91   46   47 1    
    92   46  108 1    
    93   46  109 1    
    94   47   48 1    
    95   48  110 1    
    96   48  111 1    
    97   49   50 am   BACKBONE|DICT|INTERRES
    98   49  112 1    
    99   50   51 2    
   100   50   52 1    
   101   52   53 1    
   102   52   54 1    
   103   52  113 1    
   104   53  114 1    
   105   53  115 1    
   106   53  116 1    
   107   54   55 am   BACKBONE|DICT|INTERRES
   108   54  117 1    
   109   55   56 2    
   110   55   57 1    
   111   57   58 1    
   112   57   59 1    
   113   57  118 1    
   114   58  119 1    
   115   58  120 1    
   116   58  121 1    
   117   59   60 am   BACKBONE|DICT|INTERRES
   118   59  122 1    
   119   60   61 2    
   120   60   62 1    
   121   62   63 1    
   122   62   64 1    
   123   62  123 1    
   124   63  124 1    
   125   63  125 1    
   126   63  126 1    
   127   64   65 am   BACKBONE|DICT|INTERRES
   128   64  127 1    
   129   65   66 2    
@<TRIPOS>SUBSTRUCTURE
     1 UNK         1 GROUP             0       ****    0 ROOT    
