@<TRIPOS>MOLECULE
3R135
127   129    1
SMALL
USER_CHARGES


@<TRIPOS>ATOM
      1 CA        -74.5071   24.2725  -69.5321 C.3       0 UNK        -0.1998 
      2 C         -76.0208   24.3727  -69.6390 C.2       0 UNK         0.4909 
      3 O         -76.7316   23.7176  -68.8761 O.2       0 UNK        -0.5240 
      4 N         -76.5152   25.1898  -70.5745 N.am      1 UNK        -0.4739 
      5 CA        -77.9415   25.3794  -70.8467 C.3       1 UNK         0.0864 
      6 C6        -78.2541   26.8146  -71.3351 C.3       11 UNK        -0.0881 
      7 S7        -78.0159   28.0403  -70.0050 S.3       11 UNK        -0.2682 
      8 C8        -79.3577   29.2211  -70.3488 C.3       11 UNK         0.0289 
      9 C9        -79.0245   30.1223  -71.5289 C.ar      11 UNK        -0.0687 
     10 C10       -79.5226   29.8422  -72.8050 C.ar      11 UNK        -0.0823 
     11 C11       -79.2179   30.6758  -73.8879 C.ar      11 UNK        -0.0830 
     12 C12       -78.4229   31.8080  -73.6788 C.ar      11 UNK        -0.1021 
     13 C13       -77.9168   32.0960  -72.4071 C.ar      11 UNK        -0.0753 
     14 C14       -78.2230   31.2505  -71.3376 C.ar      11 UNK        -0.0933 
     15 C15       -77.0479   33.3232  -72.1738 C.3       11 UNK         0.0166 
     16 S16       -75.2847   32.8858  -72.0440 S.3       11 UNK        -0.2615 
     17 C17       -74.8158   32.6862  -73.7976 C.3       11 UNK        -0.0865 
     18 CA        -74.9162   31.2245  -74.3113 C.3       10 UNK         0.0862 
     19 C         -74.5857   31.1591  -75.8282 C.2       10 UNK         0.5551 
     20 N         -73.5717   30.4202  -76.2575 N.am      10 UNK        -0.7319 
     21 O         -75.2661   31.7910  -76.6319 O.2       10 UNK        -0.5018 
     22 N         -74.1278   30.2907  -73.4878 N.am      10 UNK        -0.4509 
     23 C         -74.5777   29.1157  -73.0298 C.2       10 UNK         0.4899 
     24 O         -75.7121   28.6853  -73.2305 O.2       10 UNK        -0.4839 
     25 CA        -73.5919   28.3184  -72.1573 C.3       9 UNK         0.0222 
     26 CB        -74.1737   28.0471  -70.7566 C.3       9 UNK        -0.1966 
     27 N         -73.1085   27.0867  -72.7969 N.am      9 UNK        -0.4218 
     28 C         -73.7850   25.9755  -73.1263 C.2       9 UNK         0.5020 
     29 O         -74.9859   25.7792  -72.9226 O.2       9 UNK        -0.5274 
     30 CA        -72.9454   24.8477  -73.7400 C.3       8 UNK         0.0270 
     31 CB        -73.1731   23.5232  -72.9772 C.3       8 UNK        -0.1976 
     32 N         -73.2646   24.7122  -75.1623 N.am      8 UNK        -0.4313 
     33 C         -72.5582   23.9760  -76.0345 C.2       8 UNK         0.5041 
     34 O         -71.5516   23.3354  -75.7265 O.2       8 UNK        -0.5577 
     35 CA        -73.0270   23.9326  -77.5000 C.3       7 UNK         0.0284 
     36 CB        -73.9794   22.7488  -77.7305 C.3       7 UNK        -0.1958 
     37 N         -73.6634   25.1740  -77.9406 N.am      7 UNK        -0.4454 
     38 C         -72.9868   26.2936  -78.2397 C.2       7 UNK         0.5089 
     39 O         -71.7575   26.3689  -78.2211 O.2       7 UNK        -0.5125 
     40 CA        -73.7970   27.5487  -78.6268 C.3       6 UNK         0.0408 
     41 CB        -73.8155   27.7203  -80.1540 C.3       6 UNK        -0.1791 
     42 N         -75.1756   27.5743  -78.1291 N.am      6 UNK        -0.4762 
     43 C         -75.5442   27.4799  -76.8425 C.2       6 UNK         0.5007 
     44 O         -74.7404   27.3910  -75.9171 O.2       6 UNK        -0.5032 
     45 CA        -77.0578   27.3764  -76.5580 C.3       5 UNK         0.0783 
     46 C46       -77.6583   28.7718  -76.2516 C.3       11 UNK        -0.0857 
     47 S47       -79.4354   28.6845  -75.8474 S.3       11 UNK        -0.2512 
     48 C48       -79.7790   30.3814  -75.2752 C.3       11 UNK         0.0225 
     49 N         -77.8079   26.6744  -77.6143 N.am      5 UNK        -0.4615 
     50 C         -77.5422   25.4490  -78.0838 C.2       4 UNK         0.5053 
     51 O         -76.5489   24.7906  -77.7732 O.2       4 UNK        -0.5105 
     52 CA        -78.5914   24.8204  -79.0037 C.3       4 UNK         0.0263 
     53 CB        -77.9430   24.0609  -80.1750 C.3       4 UNK        -0.1981 
     54 N         -79.3259   23.8850  -78.1630 N.am      4 UNK        -0.4224 
     55 C         -80.5421   24.1076  -77.6520 C.2       3 UNK         0.4895 
     56 O         -81.3067   24.9913  -78.0405 O.2       3 UNK        -0.5091 
     57 CA        -80.9501   23.2165  -76.4647 C.3       3 UNK         0.0250 
     58 CB        -81.6193   21.9240  -76.9598 C.3       3 UNK        -0.1996 
     59 N         -79.8265   22.8820  -75.5768 N.am      3 UNK        -0.4254 
     60 C         -79.1141   23.7771  -74.8740 C.2       2 UNK         0.5004 
     61 O         -79.3256   24.9914  -74.8951 O.2       2 UNK        -0.5226 
     62 CA        -77.9494   23.2172  -74.0350 C.3       2 UNK         0.0269 
     63 CB        -76.7003   23.0247  -74.9086 C.3       2 UNK        -0.1926 
     64 N         -77.6063   24.0873  -72.9069 N.am      2 UNK        -0.4687 
     65 C         -78.4217   24.3395  -71.8717 C.2       1 UNK         0.5165 
     66 O         -79.5044   23.7760  -71.6998 O.2       1 UNK        -0.5079 
     67 H67       -74.0062   24.9744  -70.1974 H         1 UNK         0.0900 
     68 H68       -74.1794   23.2648  -69.7852 H         1 UNK         0.0900 
     69 H69       -74.1880   24.4896  -68.5132 H         1 UNK         0.0900 
     70 H70       -75.8875   25.6367  -71.2388 H         1 UNK         0.2959 
     71 H71       -78.5103   25.2063  -69.9299 H         1 UNK         0.1079 
     72 H72       -77.6241   27.0869  -72.1846 H         1 UNK         0.0837 
     73 H73       -79.2847   26.8775  -71.6896 H         1 UNK         0.0837 
     74 H74       -80.2937   28.6866  -70.5180 H         1 UNK         0.0685 
     75 H75       -79.5179   29.8337  -69.4603 H         1 UNK         0.0685 
     76 H76       -80.1447   28.9714  -72.9593 H         1 UNK         0.1434 
     77 H77       -78.1895   32.4632  -74.5070 H         1 UNK         0.1329 
     78 H78       -77.8303   31.4680  -70.3537 H         1 UNK         0.1335 
     79 H79       -77.3549   33.8070  -71.2454 H         1 UNK         0.0680 
     80 H80       -77.1948   34.0637  -72.9615 H         1 UNK         0.0680 
     81 H81       -73.7940   33.0528  -73.9113 H         1 UNK         0.1032 
     82 H82       -75.4354   33.3499  -74.4038 H         1 UNK         0.1032 
     83 H83       -75.9644   30.9396  -74.2455 H         1 UNK         0.0461 
     84 H84       -73.3654   30.3964  -77.2423 H         1 UNK         0.3453 
     85 H85       -73.0492   29.8483  -75.6143 H         1 UNK         0.3453 
     86 H86       -73.1879   30.5831  -73.2647 H         1 UNK         0.2984 
     87 H87       -72.7020   28.9328  -72.0111 H         1 UNK         0.0554 
     88 H88       -73.4741   27.4960  -70.1288 H         1 UNK         0.0847 
     89 H89       -75.1030   27.4836  -70.8094 H         1 UNK         0.0847 
     90 H90       -74.4031   28.9836  -70.2469 H         1 UNK         0.0847 
     91 H91       -72.1291   27.1085  -73.0445 H         1 UNK         0.3141 
     92 H92       -71.8881   25.1085  -73.6575 H         1 UNK         0.0743 
     93 H93       -74.2198   23.2210  -72.9874 H         1 UNK         0.0784 
     94 H94       -72.5862   22.7035  -73.3900 H         1 UNK         0.0784 
     95 H95       -72.8745   23.6261  -71.9344 H         1 UNK         0.0784 
     96 H96       -74.0340   25.2845  -75.4941 H         1 UNK         0.3213 
     97 H97       -72.1427   23.7671  -78.1197 H         1 UNK         0.0855 
     98 H98       -74.8774   22.8285  -77.1199 H         1 UNK         0.0814 
     99 H99       -73.4960   21.8050  -77.4746 H         1 UNK         0.0814 
    100 H100      -74.2889   22.6838  -78.7737 H         1 UNK         0.0814 
    101 H101      -74.6808   25.1826  -77.9637 H         1 UNK         0.3105 
    102 H102      -73.2791   28.4061  -78.1957 H         1 UNK         0.0547 
    103 H103      -72.8020   27.7368  -80.5577 H         1 UNK         0.0837 
    104 H104      -74.3475   26.9044  -80.6448 H         1 UNK         0.0837 
    105 H105      -74.2914   28.6570  -80.4443 H         1 UNK         0.0837 
    106 H106      -75.9069   27.6113  -78.8243 H         1 UNK         0.3020 
    107 H107      -77.1551   26.7688  -75.6541 H         1 UNK         0.1245 
    108 H108      -77.1414   29.2253  -75.4052 H         1 UNK         0.0781 
    109 H109      -77.5245   29.4491  -77.0973 H         1 UNK         0.0781 
    110 H110      -79.3949   31.0878  -76.0128 H         1 UNK         0.0836 
    111 H111      -80.8597   30.5260  -75.2475 H         1 UNK         0.0836 
    112 H112      -78.6755   27.1159  -77.8838 H         1 UNK         0.3022 
    113 H113      -79.2444   25.5977  -79.4065 H         1 UNK         0.0747 
    114 H114      -78.6994   23.6094  -80.8170 H         1 UNK         0.0793 
    115 H115      -77.3504   24.7351  -80.7944 H         1 UNK         0.0793 
    116 H116      -77.2800   23.2651  -79.8323 H         1 UNK         0.0793 
    117 H117      -78.7688   23.1541  -77.7439 H         1 UNK         0.3047 
    118 H118      -81.6798   23.7753  -75.8746 H         1 UNK         0.0822 
    119 H119      -81.9954   21.3275  -76.1283 H         1 UNK         0.0807 
    120 H120      -80.9298   21.3041  -77.5344 H         1 UNK         0.0807 
    121 H121      -82.4700   22.1486  -77.6050 H         1 UNK         0.0807 
    122 H122      -79.5894   21.9028  -75.5017 H         1 UNK         0.2946 
    123 H123      -78.2542   22.2481  -73.6336 H         1 UNK         0.1144 
    124 H124      -76.9297   22.4581  -75.8118 H         1 UNK         0.0793 
    125 H125      -75.9259   22.4742  -74.3762 H         1 UNK         0.0793 
    126 H126      -76.2790   23.9813  -75.2203 H         1 UNK         0.0793 
    127 H127      -76.7442   24.6176  -72.9802 H         1 UNK         0.2896 
@<TRIPOS>BOND
     1    1    2 1    
     2    1   67 1    
     3    1   68 1    
     4    1   69 1    
     5    2    3 2    
     6    2    4 am   BACKBONE|DICT|INTERRES
     7    4    5 1    
     8    4   70 1    
     9    5    6 1    
    10    5   65 1    
    11    5   71 1    
    12    6    7 1    
    13    6   72 1    
    14    6   73 1    
    15    7    8 1    
    16    8    9 1    
    17    8   74 1    
    18    8   75 1    
    19    9   10 ar   
    20    9   14 ar   
    21   10   11 ar   
    22   10   76 1    
    23   11   12 ar   
    24   11   48 1    
    25   12   13 ar   
    26   12   77 1    
    27   13   14 ar   
    28   13   15 1    
    29   14   78 1    
    30   15   16 1    
    31   15   79 1    
    32   15   80 1    
    33   16   17 1    
    34   17   18 1    
    35   17   81 1    
    36   17   82 1    
    37   18   19 1    
    38   18   22 1    
    39   18   83 1    
    40   19   20 am   BACKBONE|DICT|INTERRES
    41   19   21 2    
    42   20   84 1    
    43   20   85 1    
    44   22   23 am   BACKBONE|DICT|INTERRES
    45   22   86 1    
    46   23   24 2    
    47   23   25 1    
    48   25   26 1    
    49   25   27 1    
    50   25   87 1    
    51   26   88 1    
    52   26   89 1    
    53   26   90 1    
    54   27   28 am   BACKBONE|DICT|INTERRES
    55   27   91 1    
    56   28   29 2    
    57   28   30 1    
    58   30   31 1    
    59   30   32 1    
    60   30   92 1    
    61   31   93 1    
    62   31   94 1    
    63   31   95 1    
    64   32   33 am   BACKBONE|DICT|INTERRES
    65   32   96 1    
    66   33   34 2    
    67   33   35 1    
    68   35   36 1    
    69   35   37 1    
    70   35   97 1    
    71   36   98 1    
    72   36   99 1    
    73   36  100 1    
    74   37   38 am   BACKBONE|DICT|INTERRES
    75   37  101 1    
    76   38   39 2    
    77   38   40 1    
    78   40   41 1    
    79   40   42 1    
    80   40  102 1    
    81   41  103 1    
    82   41  104 1    
    83   41  105 1    
    84   42   43 am   BACKBONE|DICT|INTERRES
    85   42  106 1    
    86   43   44 2    
    87   43   45 1    
    88   45   46 1    
    89   45   49 1    
    90   45  107 1    
    91   46   47 1    
    92   46  108 1    
    93   46  109 1    
    94   47   48 1    
    95   48  110 1    
    96   48  111 1    
    97   49   50 am   BACKBONE|DICT|INTERRES
    98   49  112 1    
    99   50   51 2    
   100   50   52 1    
   101   52   53 1    
   102   52   54 1    
   103   52  113 1    
   104   53  114 1    
   105   53  115 1    
   106   53  116 1    
   107   54   55 am   BACKBONE|DICT|INTERRES
   108   54  117 1    
   109   55   56 2    
   110   55   57 1    
   111   57   58 1    
   112   57   59 1    
   113   57  118 1    
   114   58  119 1    
   115   58  120 1    
   116   58  121 1    
   117   59   60 am   BACKBONE|DICT|INTERRES
   118   59  122 1    
   119   60   61 2    
   120   60   62 1    
   121   62   63 1    
   122   62   64 1    
   123   62  123 1    
   124   63  124 1    
   125   63  125 1    
   126   63  126 1    
   127   64   65 am   BACKBONE|DICT|INTERRES
   128   64  127 1    
   129   65   66 2    
@<TRIPOS>SUBSTRUCTURE
     1 UNK         1 GROUP             0       ****    0 ROOT    
