@<TRIPOS>MOLECULE
3R135
127   129    1
SMALL
USER_CHARGES


@<TRIPOS>ATOM
      1 CA        -82.7214   22.6165  -72.4189 C.3       0 UNK        -0.1998 
      2 C         -82.0571   23.9338  -72.7888 C.2       0 UNK         0.4909 
      3 O         -80.9125   23.9198  -73.2393 O.2       0 UNK        -0.5240 
      4 N         -82.7833   25.0497  -72.6127 N.am      1 UNK        -0.4739 
      5 CA        -82.3973   26.4520  -72.8523 C.3       1 UNK         0.0864 
      6 C6        -81.8749   27.1911  -71.5888 C.3       11 UNK        -0.0881 
      7 S7        -80.4729   26.4217  -70.7085 S.3       11 UNK        -0.2682 
      8 C8        -79.6265   27.8874  -70.0367 C.3       11 UNK         0.0289 
      9 C9        -78.5217   28.3965  -70.9538 C.ar      11 UNK        -0.0687 
     10 C10       -78.8014   29.3054  -71.9808 C.ar      11 UNK        -0.0823 
     11 C11       -77.7750   29.8158  -72.7848 C.ar      11 UNK        -0.0830 
     12 C12       -76.4578   29.4100  -72.5459 C.ar      11 UNK        -0.1021 
     13 C13       -76.1673   28.4960  -71.5297 C.ar      11 UNK        -0.0753 
     14 C14       -77.2017   27.9900  -70.7395 C.ar      11 UNK        -0.0933 
     15 C15       -74.7309   28.0740  -71.2796 C.3       11 UNK         0.0166 
     16 S16       -73.8499   29.3363  -70.3123 S.3       11 UNK        -0.2615 
     17 C17       -72.1131   28.8901  -70.6439 C.3       11 UNK        -0.0865 
     18 CA        -71.4296   29.8827  -71.6200 C.3       10 UNK         0.0862 
     19 C         -69.9031   29.6034  -71.6934 C.2       10 UNK         0.5551 
     20 N         -69.1127   30.2563  -70.8528 N.am      10 UNK        -0.7319 
     21 O         -69.4387   28.7710  -72.4701 O.2       10 UNK        -0.5018 
     22 N         -72.0646   29.8596  -72.9460 N.am      10 UNK        -0.4509 
     23 C         -71.8180   30.7196  -73.9404 C.2       10 UNK         0.4899 
     24 O         -71.1066   31.7188  -73.8218 O.2       10 UNK        -0.4839 
     25 CA        -72.4534   30.3773  -75.3033 C.3       9 UNK         0.0222 
     26 CB        -72.1822   31.4497  -76.3750 C.3       9 UNK        -0.1966 
     27 N         -71.9714   29.0806  -75.7903 N.am      9 UNK        -0.4218 
     28 C         -72.4490   27.8966  -75.3896 C.2       9 UNK         0.5020 
     29 O         -73.3759   27.7779  -74.5893 O.2       9 UNK        -0.5274 
     30 CA        -71.7246   26.6464  -75.8921 C.3       8 UNK         0.0270 
     31 CB        -70.7374   26.1372  -74.8236 C.3       8 UNK        -0.1976 
     32 N         -72.7057   25.6133  -76.2194 N.am      8 UNK        -0.4313 
     33 C         -72.4599   24.5603  -77.0100 C.2       8 UNK         0.5041 
     34 O         -71.3532   24.3094  -77.4912 O.2       8 UNK        -0.5577 
     35 CA        -73.6449   23.6450  -77.3602 C.3       7 UNK         0.0284 
     36 CB        -73.9729   22.6848  -76.2050 C.3       7 UNK        -0.1958 
     37 N         -74.8365   24.4011  -77.7505 N.am      7 UNK        -0.4454 
     38 C         -74.9381   25.1183  -78.8799 C.2       7 UNK         0.5089 
     39 O         -74.0614   25.1654  -79.7437 O.2       7 UNK        -0.5125 
     40 CA        -76.2312   25.9242  -79.0892 C.3       6 UNK         0.0408 
     41 CB        -77.2953   25.0610  -79.7847 C.3       6 UNK        -0.1791 
     42 N         -76.7722   26.4683  -77.8425 N.am      6 UNK        -0.4762 
     43 C         -76.1880   27.4327  -77.1152 C.2       6 UNK         0.5007 
     44 O         -75.1698   28.0266  -77.4708 O.2       6 UNK        -0.5032 
     45 CA        -76.8343   27.7708  -75.7547 C.3       5 UNK         0.0783 
     46 C46       -77.9272   28.8649  -75.8896 C.3       11 UNK        -0.0857 
     47 S47       -77.2771   30.5152  -75.4736 S.3       11 UNK        -0.2512 
     48 C48       -78.0971   30.8397  -73.8726 C.3       11 UNK         0.0225 
     49 N         -77.3322   26.5845  -75.0521 N.am      5 UNK        -0.4615 
     50 C         -76.5560   25.5804  -74.6201 C.2       4 UNK         0.5053 
     51 O         -75.3392   25.5253  -74.7883 O.2       4 UNK        -0.5105 
     52 CA        -77.2669   24.4070  -73.9323 C.3       4 UNK         0.0263 
     53 CB        -77.6640   24.7845  -72.4990 C.3       4 UNK        -0.1981 
     54 N         -78.4474   23.9699  -74.6778 N.am      4 UNK        -0.4224 
     55 C         -78.4100   23.4571  -75.9163 C.2       3 UNK         0.4895 
     56 O         -77.3709   23.2311  -76.5368 O.2       3 UNK        -0.5091 
     57 CA        -79.7616   23.2028  -76.5994 C.3       3 UNK         0.0250 
     58 CB        -80.3950   21.8917  -76.1062 C.3       3 UNK        -0.1996 
     59 N         -80.6964   24.3149  -76.4117 N.am      3 UNK        -0.4254 
     60 C         -80.5231   25.5425  -76.9229 C.2       2 UNK         0.5004 
     61 O         -79.5586   25.8673  -77.6119 O.2       2 UNK        -0.5226 
     62 CA        -81.5956   26.5945  -76.6077 C.3       2 UNK         0.0269 
     63 CB        -82.6976   26.5776  -77.6789 C.3       2 UNK        -0.1926 
     64 N         -82.1975   26.4241  -75.2843 N.am      2 UNK        -0.4687 
     65 C         -81.5612   26.6782  -74.1320 C.2       1 UNK         0.5165 
     66 O         -80.3878   27.0496  -74.0721 O.2       1 UNK        -0.5079 
     67 H67       -82.7830   21.9695  -73.2935 H         1 UNK         0.0900 
     68 H68       -82.1338   22.1046  -71.6574 H         1 UNK         0.0900 
     69 H69       -83.7292   22.7600  -72.0300 H         1 UNK         0.0900 
     70 H70       -83.7209   24.9401  -72.2521 H         1 UNK         0.2959 
     71 H71       -83.3436   26.9465  -73.0803 H         1 UNK         0.1079 
     72 H72       -81.6259   28.2213  -71.8442 H         1 UNK         0.0837 
     73 H73       -82.6889   27.2688  -70.8666 H         1 UNK         0.0837 
     74 H74       -80.3479   28.6807  -69.8356 H         1 UNK         0.0685 
     75 H75       -79.2038   27.6213  -69.0667 H         1 UNK         0.0685 
     76 H76       -79.8195   29.6277  -72.1451 H         1 UNK         0.1434 
     77 H77       -75.6523   29.8096  -73.1470 H         1 UNK         0.1329 
     78 H78       -76.9772   27.2915  -69.9451 H         1 UNK         0.1335 
     79 H79       -74.2320   27.9186  -72.2339 H         1 UNK         0.0680 
     80 H80       -74.6916   27.1191  -70.7532 H         1 UNK         0.0680 
     81 H81       -71.5945   28.8854  -69.6829 H         1 UNK         0.1032 
     82 H82       -72.0502   27.8674  -71.0215 H         1 UNK         0.1032 
     83 H83       -71.5626   30.8914  -71.2230 H         1 UNK         0.0461 
     84 H84       -68.1209   30.0768  -70.8735 H         1 UNK         0.3453 
     85 H85       -69.4853   30.9340  -70.2057 H         1 UNK         0.3453 
     86 H86       -72.6311   29.0476  -73.1645 H         1 UNK         0.2984 
     87 H87       -73.5350   30.3263  -75.1569 H         1 UNK         0.0554 
     88 H88       -72.5551   32.4235  -76.0548 H         1 UNK         0.0847 
     89 H89       -72.6824   31.2067  -77.3128 H         1 UNK         0.0847 
     90 H90       -71.1166   31.5595  -76.5803 H         1 UNK         0.0847 
     91 H91       -71.1723   29.1005  -76.4078 H         1 UNK         0.3141 
     92 H92       -71.1737   26.9043  -76.7992 H         1 UNK         0.0743 
     93 H93       -70.0224   26.9142  -74.5496 H         1 UNK         0.0784 
     94 H94       -71.2558   25.8360  -73.9122 H         1 UNK         0.0784 
     95 H95       -70.1627   25.2826  -75.1802 H         1 UNK         0.0784 
     96 H96       -73.6366   25.7523  -75.8259 H         1 UNK         0.3213 
     97 H97       -73.3474   23.0373  -78.2177 H         1 UNK         0.0855 
     98 H98       -74.2719   23.2157  -75.3020 H         1 UNK         0.0814 
     99 H99       -73.1048   22.0759  -75.9496 H         1 UNK         0.0814 
    100 H100      -74.7799   22.0029  -76.4736 H         1 UNK         0.0814 
    101 H101      -75.6255   24.3793  -77.1136 H         1 UNK         0.3105 
    102 H102      -75.9961   26.7638  -79.7466 H         1 UNK         0.0547 
    103 H103      -78.1840   25.6448  -80.0247 H         1 UNK         0.0837 
    104 H104      -76.9155   24.6500  -80.7209 H         1 UNK         0.0837 
    105 H105      -77.6050   24.2220  -79.1607 H         1 UNK         0.0837 
    106 H106      -77.6616   26.0862  -77.5286 H         1 UNK         0.3020 
    107 H107      -76.0240   28.1516  -75.1280 H         1 UNK         0.1245 
    108 H108      -78.7675   28.6600  -75.2271 H         1 UNK         0.0781 
    109 H109      -78.3618   28.8948  -76.8910 H         1 UNK         0.0781 
    110 H110      -79.1736   30.8931  -74.0430 H         1 UNK         0.0836 
    111 H111      -77.7940   31.8262  -73.5200 H         1 UNK         0.0836 
    112 H112      -78.3243   26.5578  -74.8476 H         1 UNK         0.3022 
    113 H113      -76.5701   23.5676  -73.8866 H         1 UNK         0.0747 
    114 H114      -78.1528   23.9561  -71.9862 H         1 UNK         0.0793 
    115 H115      -76.7897   25.0673  -71.9115 H         1 UNK         0.0793 
    116 H116      -78.3491   25.6326  -72.4919 H         1 UNK         0.0793 
    117 H117      -79.3516   24.0918  -74.2221 H         1 UNK         0.3047 
    118 H118      -79.5745   23.1047  -77.6710 H         1 UNK         0.0822 
    119 H119      -79.7223   21.0495  -76.2742 H         1 UNK         0.0807 
    120 H120      -81.3226   21.6750  -76.6360 H         1 UNK         0.0807 
    121 H121      -80.6164   21.9216  -75.0391 H         1 UNK         0.0807 
    122 H122      -81.4877   24.1535  -75.8061 H         1 UNK         0.2946 
    123 H123      -81.1067   27.5715  -76.6362 H         1 UNK         0.1144 
    124 H124      -83.4213   27.3766  -77.5167 H         1 UNK         0.0793 
    125 H125      -83.2381   25.6303  -77.6901 H         1 UNK         0.0793 
    126 H126      -82.2749   26.7233  -78.6742 H         1 UNK         0.0793 
    127 H127      -83.1541   26.1009  -75.2536 H         1 UNK         0.2896 
@<TRIPOS>BOND
     1    1    2 1    
     2    1   67 1    
     3    1   68 1    
     4    1   69 1    
     5    2    3 2    
     6    2    4 am   BACKBONE|DICT|INTERRES
     7    4    5 1    
     8    4   70 1    
     9    5    6 1    
    10    5   65 1    
    11    5   71 1    
    12    6    7 1    
    13    6   72 1    
    14    6   73 1    
    15    7    8 1    
    16    8    9 1    
    17    8   74 1    
    18    8   75 1    
    19    9   10 ar   
    20    9   14 ar   
    21   10   11 ar   
    22   10   76 1    
    23   11   12 ar   
    24   11   48 1    
    25   12   13 ar   
    26   12   77 1    
    27   13   14 ar   
    28   13   15 1    
    29   14   78 1    
    30   15   16 1    
    31   15   79 1    
    32   15   80 1    
    33   16   17 1    
    34   17   18 1    
    35   17   81 1    
    36   17   82 1    
    37   18   19 1    
    38   18   22 1    
    39   18   83 1    
    40   19   20 am   BACKBONE|DICT|INTERRES
    41   19   21 2    
    42   20   84 1    
    43   20   85 1    
    44   22   23 am   BACKBONE|DICT|INTERRES
    45   22   86 1    
    46   23   24 2    
    47   23   25 1    
    48   25   26 1    
    49   25   27 1    
    50   25   87 1    
    51   26   88 1    
    52   26   89 1    
    53   26   90 1    
    54   27   28 am   BACKBONE|DICT|INTERRES
    55   27   91 1    
    56   28   29 2    
    57   28   30 1    
    58   30   31 1    
    59   30   32 1    
    60   30   92 1    
    61   31   93 1    
    62   31   94 1    
    63   31   95 1    
    64   32   33 am   BACKBONE|DICT|INTERRES
    65   32   96 1    
    66   33   34 2    
    67   33   35 1    
    68   35   36 1    
    69   35   37 1    
    70   35   97 1    
    71   36   98 1    
    72   36   99 1    
    73   36  100 1    
    74   37   38 am   BACKBONE|DICT|INTERRES
    75   37  101 1    
    76   38   39 2    
    77   38   40 1    
    78   40   41 1    
    79   40   42 1    
    80   40  102 1    
    81   41  103 1    
    82   41  104 1    
    83   41  105 1    
    84   42   43 am   BACKBONE|DICT|INTERRES
    85   42  106 1    
    86   43   44 2    
    87   43   45 1    
    88   45   46 1    
    89   45   49 1    
    90   45  107 1    
    91   46   47 1    
    92   46  108 1    
    93   46  109 1    
    94   47   48 1    
    95   48  110 1    
    96   48  111 1    
    97   49   50 am   BACKBONE|DICT|INTERRES
    98   49  112 1    
    99   50   51 2    
   100   50   52 1    
   101   52   53 1    
   102   52   54 1    
   103   52  113 1    
   104   53  114 1    
   105   53  115 1    
   106   53  116 1    
   107   54   55 am   BACKBONE|DICT|INTERRES
   108   54  117 1    
   109   55   56 2    
   110   55   57 1    
   111   57   58 1    
   112   57   59 1    
   113   57  118 1    
   114   58  119 1    
   115   58  120 1    
   116   58  121 1    
   117   59   60 am   BACKBONE|DICT|INTERRES
   118   59  122 1    
   119   60   61 2    
   120   60   62 1    
   121   62   63 1    
   122   62   64 1    
   123   62  123 1    
   124   63  124 1    
   125   63  125 1    
   126   63  126 1    
   127   64   65 am   BACKBONE|DICT|INTERRES
   128   64  127 1    
   129   65   66 2    
@<TRIPOS>SUBSTRUCTURE
     1 UNK         1 GROUP             0       ****    0 ROOT    
