@<TRIPOS>MOLECULE
3R135
127   129    1
SMALL
USER_CHARGES


@<TRIPOS>ATOM
      1 CA        -78.5258   25.2827  -70.4039 C.3       0 UNK        -0.1998 
      2 C         -79.6391   25.9890  -71.1613 C.2       0 UNK         0.4909 
      3 O         -79.4770   26.2732  -72.3464 O.2       0 UNK        -0.5240 
      4 N         -80.7712   26.2452  -70.4889 N.am      1 UNK        -0.4739 
      5 CA        -81.9761   26.9740  -70.9342 C.3       1 UNK         0.0864 
      6 C6        -81.7276   28.4751  -71.2407 C.3       11 UNK        -0.0881 
      7 S7        -81.0106   29.3783  -69.8193 S.3       11 UNK        -0.2682 
      8 C8        -79.8301   30.5207  -70.6138 C.3       11 UNK         0.0289 
      9 C9        -78.6582   29.7834  -71.2443 C.ar      11 UNK        -0.0687 
     10 C10       -78.6451   29.5410  -72.6201 C.ar      11 UNK        -0.0823 
     11 C11       -77.6209   28.7890  -73.1969 C.ar      11 UNK        -0.0830 
     12 C12       -76.5903   28.2982  -72.3898 C.ar      11 UNK        -0.1021 
     13 C13       -76.5498   28.5976  -71.0244 C.ar      11 UNK        -0.0753 
     14 C14       -77.5963   29.3304  -70.4543 C.ar      11 UNK        -0.0933 
     15 C15       -75.3884   28.1175  -70.1614 C.3       11 UNK         0.0166 
     16 S16       -73.7556   28.5205  -70.8717 S.3       11 UNK        -0.2615 
     17 C17       -73.7956   30.3480  -70.9305 C.3       11 UNK        -0.0865 
     18 CA        -74.1576   30.9232  -72.3345 C.3       10 UNK         0.0862 
     19 C         -74.2577   32.4792  -72.3372 C.2       10 UNK         0.5551 
     20 N         -73.9694   33.1547  -73.4433 N.am      10 UNK        -0.7319 
     21 O         -74.6272   33.0859  -71.3345 O.2       10 UNK        -0.5018 
     22 N         -73.3519   30.3500  -73.4304 N.am      10 UNK        -0.4509 
     23 C         -72.0288   30.4804  -73.5911 C.2       10 UNK         0.4899 
     24 O         -71.2972   31.1191  -72.8333 O.2       10 UNK        -0.4839 
     25 CA        -71.4304   29.7241  -74.7842 C.3       9 UNK         0.0222 
     26 CB        -69.9495   30.0649  -75.0395 C.3       9 UNK        -0.1966 
     27 N         -71.5667   28.2907  -74.5337 N.am      9 UNK        -0.4218 
     28 C         -72.0084   27.3897  -75.4172 C.2       9 UNK         0.5020 
     29 O         -72.3266   27.6639  -76.5761 O.2       9 UNK        -0.5274 
     30 CA        -72.1539   25.9512  -74.8873 C.3       8 UNK         0.0270 
     31 CB        -73.3031   25.8658  -73.8649 C.3       8 UNK        -0.1976 
     32 N         -72.4033   24.9788  -75.9553 N.am      8 UNK        -0.4313 
     33 C         -71.4860   24.5220  -76.8191 C.2       8 UNK         0.5041 
     34 O         -70.3002   24.8558  -76.7926 O.2       8 UNK        -0.5577 
     35 CA        -71.9513   23.5086  -77.8798 C.3       7 UNK         0.0284 
     36 CB        -71.9925   22.0898  -77.2877 C.3       7 UNK        -0.1958 
     37 N         -73.2695   23.8433  -78.4259 N.am      7 UNK        -0.4454 
     38 C         -73.5528   23.9995  -79.7288 C.2       7 UNK         0.5089 
     39 O         -72.7355   23.8283  -80.6340 O.2       7 UNK        -0.5125 
     40 CA        -74.9916   24.4276  -80.0969 C.3       6 UNK         0.0408 
     41 CB        -75.8420   23.1986  -80.4535 C.3       6 UNK        -0.1791 
     42 N         -75.6522   25.1715  -79.0225 N.am      6 UNK        -0.4762 
     43 C         -75.2536   26.3761  -78.5855 C.2       6 UNK         0.5007 
     44 O         -74.4896   27.0976  -79.2271 O.2       6 UNK        -0.5032 
     45 CA        -75.7110   26.8222  -77.1775 C.3       5 UNK         0.0783 
     46 C46       -76.3399   28.2380  -77.1663 C.3       11 UNK        -0.0857 
     47 S47       -76.1507   29.0214  -75.5308 S.3       11 UNK        -0.2512 
     48 C48       -77.6588   28.4597  -74.6791 C.3       11 UNK         0.0225 
     49 N         -76.5651   25.8448  -76.4893 N.am      5 UNK        -0.4615 
     50 C         -76.1826   24.6522  -76.0164 C.2       4 UNK         0.5053 
     51 O         -75.0404   24.2105  -76.1369 O.2       4 UNK        -0.5105 
     52 CA        -77.2595   23.7867  -75.3416 C.3       4 UNK         0.0263 
     53 CB        -77.2166   23.9969  -73.8201 C.3       4 UNK        -0.1981 
     54 N         -78.6247   24.0249  -75.8299 N.am      4 UNK        -0.4224 
     55 C         -79.0347   23.8991  -77.1021 C.2       3 UNK         0.4895 
     56 O         -78.2727   23.6032  -78.0245 O.2       3 UNK        -0.5091 
     57 CA        -80.5271   24.1443  -77.4150 C.3       3 UNK         0.0250 
     58 CB        -81.0733   23.0833  -78.3882 C.3       3 UNK        -0.1996 
     59 N         -81.4015   24.1897  -76.2362 N.am      3 UNK        -0.4254 
     60 C         -81.5590   25.2375  -75.4165 C.2       2 UNK         0.5004 
     61 O         -80.9256   26.2877  -75.5384 O.2       2 UNK        -0.5226 
     62 CA        -82.5757   25.0883  -74.2696 C.3       2 UNK         0.0269 
     63 CB        -82.9283   23.6246  -73.9210 C.3       2 UNK        -0.1926 
     64 N         -82.0545   25.7683  -73.0884 N.am      2 UNK        -0.4687 
     65 C         -82.7596   26.2978  -72.0859 C.2       1 UNK         0.5165 
     66 O         -83.9903   26.2615  -72.0352 O.2       1 UNK        -0.5079 
     67 H67       -78.7145   25.2569  -69.3310 H         1 UNK         0.0900 
     68 H68       -78.4205   24.2587  -70.7606 H         1 UNK         0.0900 
     69 H69       -77.5808   25.7985  -70.5686 H         1 UNK         0.0900 
     70 H70       -80.8204   25.9382  -69.5276 H         1 UNK         0.2959 
     71 H71       -82.6495   26.9378  -70.0760 H         1 UNK         0.1079 
     72 H72       -82.6646   28.9709  -71.5018 H         1 UNK         0.0837 
     73 H73       -81.0863   28.5710  -72.1153 H         1 UNK         0.0837 
     74 H74       -80.3550   31.1230  -71.3570 H         1 UNK         0.0685 
     75 H75       -79.4571   31.2196  -69.8637 H         1 UNK         0.0685 
     76 H76       -79.4570   29.9015  -73.2363 H         1 UNK         0.1434 
     77 H77       -75.8015   27.7060  -72.8322 H         1 UNK         0.1329 
     78 H78       -77.5968   29.5363  -69.3928 H         1 UNK         0.1335 
     79 H79       -75.4605   27.0356  -70.0453 H         1 UNK         0.0680 
     80 H80       -75.4481   28.5411  -69.1577 H         1 UNK         0.0680 
     81 H81       -72.8188   30.7173  -70.6143 H         1 UNK         0.1032 
     82 H82       -74.5032   30.7044  -70.1798 H         1 UNK         0.1032 
     83 H83       -75.1768   30.6093  -72.5525 H         1 UNK         0.0461 
     84 H84       -73.6776   32.6682  -74.2755 H         1 UNK         0.3453 
     85 H85       -74.0439   34.1597  -73.4434 H         1 UNK         0.3453 
     86 H86       -73.8697   29.8043  -74.1049 H         1 UNK         0.2984 
     87 H87       -72.0049   30.0167  -75.6659 H         1 UNK         0.0554 
     88 H88       -69.8189   31.1340  -75.2117 H         1 UNK         0.0847 
     89 H89       -69.5720   29.5463  -75.9208 H         1 UNK         0.0847 
     90 H90       -69.3182   29.7896  -74.1937 H         1 UNK         0.0847 
     91 H91       -71.3741   27.9930  -73.5864 H         1 UNK         0.3141 
     92 H92       -71.2221   25.6755  -74.3888 H         1 UNK         0.0743 
     93 H93       -74.2414   26.2400  -74.2752 H         1 UNK         0.0784 
     94 H94       -73.4687   24.8400  -73.5346 H         1 UNK         0.0784 
     95 H95       -73.0840   26.4546  -72.9744 H         1 UNK         0.0784 
     96 H96       -73.3625   24.6444  -76.0303 H         1 UNK         0.3213 
     97 H97       -71.2026   23.5209  -78.6750 H         1 UNK         0.0855 
     98 H98       -72.7351   22.0048  -76.4931 H         1 UNK         0.0814 
     99 H99       -71.0256   21.8146  -76.8639 H         1 UNK         0.0814 
    100 H100      -72.2337   21.3505  -78.0515 H         1 UNK         0.0814 
    101 H101      -74.0118   23.9977  -77.7506 H         1 UNK         0.3105 
    102 H102      -74.9347   25.0731  -80.9758 H         1 UNK         0.0547 
    103 H103      -75.3913   22.6352  -81.2716 H         1 UNK         0.0837 
    104 H104      -75.9453   22.5194  -79.6061 H         1 UNK         0.0837 
    105 H105      -76.8437   23.4879  -80.7720 H         1 UNK         0.0837 
    106 H106      -76.3356   24.6604  -78.4753 H         1 UNK         0.3020 
    107 H107      -74.7804   26.8750  -76.6118 H         1 UNK         0.1245 
    108 H108      -77.3903   28.2128  -77.4611 H         1 UNK         0.0781 
    109 H109      -75.8425   28.8985  -77.8792 H         1 UNK         0.0781 
    110 H110      -77.7794   27.3820  -74.7715 H         1 UNK         0.0836 
    111 H111      -78.5284   28.9094  -75.1610 H         1 UNK         0.0836 
    112 H112      -77.5352   26.1008  -76.3830 H         1 UNK         0.3022 
    113 H113      -77.0159   22.7435  -75.5529 H         1 UNK         0.0747 
    114 H114      -77.9336   23.3563  -73.3066 H         1 UNK         0.0793 
    115 H115      -76.2288   23.7614  -73.4211 H         1 UNK         0.0793 
    116 H116      -77.4353   25.0309  -73.5504 H         1 UNK         0.0793 
    117 H117      -79.3083   24.3054  -75.1416 H         1 UNK         0.3047 
    118 H118      -80.5806   25.1131  -77.9163 H         1 UNK         0.0822 
    119 H119      -82.1129   23.2815  -78.6501 H         1 UNK         0.0807 
    120 H120      -81.0183   22.0804  -77.9631 H         1 UNK         0.0807 
    121 H121      -80.5075   23.0730  -79.3210 H         1 UNK         0.0807 
    122 H122      -81.9367   23.3542  -76.0470 H         1 UNK         0.2946 
    123 H123      -83.4843   25.6003  -74.5940 H         1 UNK         0.1144 
    124 H124      -83.4125   23.1177  -74.7564 H         1 UNK         0.0793 
    125 H125      -83.6255   23.5755  -73.0843 H         1 UNK         0.0793 
    126 H126      -82.0432   23.0504  -73.6438 H         1 UNK         0.0793 
    127 H127      -81.0434   25.9121  -73.0639 H         1 UNK         0.2896 
@<TRIPOS>BOND
     1    1    2 1    
     2    1   67 1    
     3    1   68 1    
     4    1   69 1    
     5    2    3 2    
     6    2    4 am   BACKBONE|DICT|INTERRES
     7    4    5 1    
     8    4   70 1    
     9    5    6 1    
    10    5   65 1    
    11    5   71 1    
    12    6    7 1    
    13    6   72 1    
    14    6   73 1    
    15    7    8 1    
    16    8    9 1    
    17    8   74 1    
    18    8   75 1    
    19    9   10 ar   
    20    9   14 ar   
    21   10   11 ar   
    22   10   76 1    
    23   11   12 ar   
    24   11   48 1    
    25   12   13 ar   
    26   12   77 1    
    27   13   14 ar   
    28   13   15 1    
    29   14   78 1    
    30   15   16 1    
    31   15   79 1    
    32   15   80 1    
    33   16   17 1    
    34   17   18 1    
    35   17   81 1    
    36   17   82 1    
    37   18   19 1    
    38   18   22 1    
    39   18   83 1    
    40   19   20 am   BACKBONE|DICT|INTERRES
    41   19   21 2    
    42   20   84 1    
    43   20   85 1    
    44   22   23 am   BACKBONE|DICT|INTERRES
    45   22   86 1    
    46   23   24 2    
    47   23   25 1    
    48   25   26 1    
    49   25   27 1    
    50   25   87 1    
    51   26   88 1    
    52   26   89 1    
    53   26   90 1    
    54   27   28 am   BACKBONE|DICT|INTERRES
    55   27   91 1    
    56   28   29 2    
    57   28   30 1    
    58   30   31 1    
    59   30   32 1    
    60   30   92 1    
    61   31   93 1    
    62   31   94 1    
    63   31   95 1    
    64   32   33 am   BACKBONE|DICT|INTERRES
    65   32   96 1    
    66   33   34 2    
    67   33   35 1    
    68   35   36 1    
    69   35   37 1    
    70   35   97 1    
    71   36   98 1    
    72   36   99 1    
    73   36  100 1    
    74   37   38 am   BACKBONE|DICT|INTERRES
    75   37  101 1    
    76   38   39 2    
    77   38   40 1    
    78   40   41 1    
    79   40   42 1    
    80   40  102 1    
    81   41  103 1    
    82   41  104 1    
    83   41  105 1    
    84   42   43 am   BACKBONE|DICT|INTERRES
    85   42  106 1    
    86   43   44 2    
    87   43   45 1    
    88   45   46 1    
    89   45   49 1    
    90   45  107 1    
    91   46   47 1    
    92   46  108 1    
    93   46  109 1    
    94   47   48 1    
    95   48  110 1    
    96   48  111 1    
    97   49   50 am   BACKBONE|DICT|INTERRES
    98   49  112 1    
    99   50   51 2    
   100   50   52 1    
   101   52   53 1    
   102   52   54 1    
   103   52  113 1    
   104   53  114 1    
   105   53  115 1    
   106   53  116 1    
   107   54   55 am   BACKBONE|DICT|INTERRES
   108   54  117 1    
   109   55   56 2    
   110   55   57 1    
   111   57   58 1    
   112   57   59 1    
   113   57  118 1    
   114   58  119 1    
   115   58  120 1    
   116   58  121 1    
   117   59   60 am   BACKBONE|DICT|INTERRES
   118   59  122 1    
   119   60   61 2    
   120   60   62 1    
   121   62   63 1    
   122   62   64 1    
   123   62  123 1    
   124   63  124 1    
   125   63  125 1    
   126   63  126 1    
   127   64   65 am   BACKBONE|DICT|INTERRES
   128   64  127 1    
   129   65   66 2    
@<TRIPOS>SUBSTRUCTURE
     1 UNK         1 GROUP             0       ****    0 ROOT    
