@<TRIPOS>MOLECULE
3R135
127   129    1
SMALL
USER_CHARGES


@<TRIPOS>ATOM
      1 CA        -82.9123   27.7304  -70.3110 C.3       0 UNK        -0.1998 
      2 C         -83.4310   27.6812  -71.7403 C.2       0 UNK         0.4909 
      3 O         -84.4973   27.1183  -71.9883 O.2       0 UNK        -0.5240 
      4 N         -82.6802   28.2644  -72.6837 N.am      1 UNK        -0.4739 
      5 CA        -82.9949   28.2990  -74.1182 C.3       1 UNK         0.0864 
      6 C6        -82.2421   29.4508  -74.8378 C.3       11 UNK        -0.0881 
      7 S7        -80.4253   29.2565  -74.8885 S.3       11 UNK        -0.2682 
      8 C8        -79.8833   30.1991  -73.4282 C.3       11 UNK         0.0289 
      9 C9        -78.7902   29.4639  -72.6630 C.ar      11 UNK        -0.0687 
     10 C10       -79.0596   28.2246  -72.0738 C.ar      11 UNK        -0.0823 
     11 C11       -78.0825   27.5566  -71.3335 C.ar      11 UNK        -0.0830 
     12 C12       -76.8214   28.1366  -71.1802 C.ar      11 UNK        -0.1021 
     13 C13       -76.5337   29.3715  -71.7699 C.ar      11 UNK        -0.0753 
     14 C14       -77.5194   30.0296  -72.5139 C.ar      11 UNK        -0.0933 
     15 C15       -75.1599   29.9946  -71.5837 C.3       11 UNK         0.0166 
     16 S16       -73.9236   29.1526  -72.6123 S.3       11 UNK        -0.2615 
     17 C17       -72.3903   30.0095  -72.1075 C.3       11 UNK        -0.0865 
     18 CA        -71.8251   30.9569  -73.1995 C.3       10 UNK         0.0862 
     19 C         -70.4888   31.5938  -72.7174 C.2       10 UNK         0.5551 
     20 N         -69.3392   31.2164  -73.2644 N.am      10 UNK        -0.7319 
     21 O         -70.5004   32.4412  -71.8281 O.2       10 UNK        -0.5018 
     22 N         -71.7620   30.2769  -74.5003 N.am      10 UNK        -0.4509 
     23 C         -71.4965   30.8277  -75.6899 C.2       10 UNK         0.4899 
     24 O         -71.2657   32.0263  -75.8540 O.2       10 UNK        -0.4839 
     25 CA        -71.5271   29.8829  -76.9090 C.3       9 UNK         0.0222 
     26 CB        -70.3941   30.1813  -77.9135 C.3       9 UNK        -0.1966 
     27 N         -71.5737   28.4547  -76.5562 N.am      9 UNK        -0.4218 
     28 C         -70.6184   27.7199  -75.9589 C.2       9 UNK         0.5020 
     29 O         -69.5159   28.1667  -75.6394 O.2       9 UNK        -0.5274 
     30 CA        -70.9500   26.2546  -75.6051 C.3       8 UNK         0.0270 
     31 CB        -71.0567   26.0881  -74.0795 C.3       8 UNK        -0.1976 
     32 N         -72.1841   25.7625  -76.2242 N.am      8 UNK        -0.4313 
     33 C         -72.3217   25.4905  -77.5310 C.2       8 UNK         0.5041 
     34 O         -71.3828   25.5118  -78.3279 O.2       8 UNK        -0.5577 
     35 CA        -73.7357   25.1745  -78.0599 C.3       7 UNK         0.0284 
     36 CB        -73.8759   23.6673  -78.3294 C.3       7 UNK        -0.1958 
     37 N         -74.8377   25.6143  -77.1954 N.am      7 UNK        -0.4454 
     38 C         -75.0609   26.8672  -76.7693 C.2       7 UNK         0.5089 
     39 O         -74.3726   27.8327  -77.1023 O.2       7 UNK        -0.5125 
     40 CA        -76.2008   27.0703  -75.7536 C.3       6 UNK         0.0408 
     41 CB        -77.4906   27.4605  -76.4827 C.3       6 UNK        -0.1791 
     42 N         -76.4524   25.9058  -74.8934 N.am      6 UNK        -0.4762 
     43 C         -75.5440   25.3687  -74.0614 C.2       6 UNK         0.5007 
     44 O         -74.3889   25.7844  -73.9606 O.2       6 UNK        -0.5032 
     45 CA        -75.9487   24.1155  -73.2650 C.3       5 UNK         0.0783 
     46 C46       -76.5580   24.4396  -71.8768 C.3       11 UNK        -0.0857 
     47 S47       -78.3340   24.8600  -71.8909 S.3       11 UNK        -0.2512 
     48 C48       -78.4097   26.2204  -70.6873 C.3       11 UNK         0.0225 
     49 N         -76.7812   23.2191  -74.0713 N.am      5 UNK        -0.4615 
     50 C         -76.2898   22.2951  -74.9060 C.2       4 UNK         0.5053 
     51 O         -75.0889   22.0593  -75.0393 O.2       4 UNK        -0.5105 
     52 CA        -77.3061   21.5025  -75.7442 C.3       4 UNK         0.0263 
     53 CB        -77.9153   20.3593  -74.9163 C.3       4 UNK        -0.1981 
     54 N         -78.3804   22.3239  -76.3083 N.am      4 UNK        -0.4224 
     55 C         -78.2052   23.3480  -77.1565 C.2       3 UNK         0.4895 
     56 O         -77.1052   23.7585  -77.5231 O.2       3 UNK        -0.5091 
     57 CA        -79.4735   24.0378  -77.6865 C.3       3 UNK         0.0250 
     58 CB        -79.9390   23.3692  -78.9899 C.3       3 UNK        -0.1996 
     59 N         -80.5849   24.0694  -76.7310 N.am      3 UNK        -0.4254 
     60 C         -80.5556   24.6969  -75.5478 C.2       2 UNK         0.5004 
     61 O         -79.5574   25.2596  -75.0923 O.2       2 UNK        -0.5226 
     62 CA        -81.8481   24.6500  -74.7217 C.3       2 UNK         0.0269 
     63 CB        -81.7235   23.6387  -73.5709 C.3       2 UNK        -0.1926 
     64 N         -82.1486   25.9712  -74.1741 N.am      2 UNK        -0.4687 
     65 C         -82.8110   26.9355  -74.8301 C.2       1 UNK         0.5165 
     66 O         -83.2851   26.7803  -75.9572 O.2       1 UNK        -0.5079 
     67 H67       -82.7475   26.7202  -69.9371 H         1 UNK         0.0900 
     68 H68       -83.6413   28.2181  -69.6644 H         1 UNK         0.0900 
     69 H69       -81.9728   28.2778  -70.2345 H         1 UNK         0.0900 
     70 H70       -81.8259   28.7313  -72.4213 H         1 UNK         0.2959 
     71 H71       -84.0611   28.5228  -74.2014 H         1 UNK         0.1079 
     72 H72       -82.4919   30.4073  -74.3760 H         1 UNK         0.0837 
     73 H73       -82.5939   29.5333  -75.8679 H         1 UNK         0.0837 
     74 H74       -80.7203   30.3807  -72.7537 H         1 UNK         0.0685 
     75 H75       -79.5386   31.1809  -73.7561 H         1 UNK         0.0685 
     76 H76       -80.0289   27.7668  -72.1971 H         1 UNK         0.1434 
     77 H77       -76.0587   27.6288  -70.6058 H         1 UNK         0.1329 
     78 H78       -77.3000   30.9870  -72.9662 H         1 UNK         0.1335 
     79 H79       -75.1768   31.0561  -71.8361 H         1 UNK         0.0680 
     80 H80       -74.8705   29.9261  -70.5339 H         1 UNK         0.0680 
     81 H81       -72.5668   30.5605  -71.1816 H         1 UNK         0.1032 
     82 H82       -71.6552   29.2411  -71.8592 H         1 UNK         0.1032 
     83 H83       -72.5304   31.7814  -73.3185 H         1 UNK         0.0461 
     84 H84       -68.4780   31.6335  -72.9485 H         1 UNK         0.3453 
     85 H85       -69.3285   30.5189  -73.9931 H         1 UNK         0.3453 
     86 H86       -71.9690   29.2902  -74.4779 H         1 UNK         0.2984 
     87 H87       -72.4717   30.0862  -77.4154 H         1 UNK         0.0554 
     88 H88       -70.4351   29.5080  -78.7697 H         1 UNK         0.0847 
     89 H89       -69.4086   30.0856  -77.4571 H         1 UNK         0.0847 
     90 H90       -70.4720   31.1984  -78.2993 H         1 UNK         0.0847 
     91 H91       -72.4689   28.0101  -76.7472 H         1 UNK         0.3141 
     92 H92       -70.1206   25.6388  -75.9591 H         1 UNK         0.0743 
     93 H93       -70.1255   26.3734  -73.5881 H         1 UNK         0.0784 
     94 H94       -71.8490   26.7094  -73.6595 H         1 UNK         0.0784 
     95 H95       -71.2625   25.0532  -73.8052 H         1 UNK         0.0784 
     96 H96       -73.0035   25.7185  -75.6267 H         1 UNK         0.3213 
     97 H97       -73.8423   25.7031  -79.0092 H         1 UNK         0.0855 
     98 H98       -73.8646   23.0904  -77.4037 H         1 UNK         0.0814 
     99 H99       -73.0601   23.3005  -78.9540 H         1 UNK         0.0814 
    100 H100      -74.8044   23.4425  -78.8539 H         1 UNK         0.0814 
    101 H101      -75.5132   24.9021  -76.9349 H         1 UNK         0.3105 
    102 H102      -75.9178   27.8967  -75.0978 H         1 UNK         0.0547 
    103 H103      -78.3140   27.5817  -75.7816 H         1 UNK         0.0837 
    104 H104      -77.3701   28.4057  -77.0133 H         1 UNK         0.0837 
    105 H105      -77.7810   26.7081  -77.2142 H         1 UNK         0.0837 
    106 H106      -77.3929   25.5251  -74.9092 H         1 UNK         0.3020 
    107 H107      -75.0074   23.6004  -73.0561 H         1 UNK         0.1245 
    108 H108      -75.9882   25.2309  -71.3865 H         1 UNK         0.0781 
    109 H109      -76.4493   23.5663  -71.2321 H         1 UNK         0.0781 
    110 H110      -77.7439   26.0158  -69.8474 H         1 UNK         0.0836 
    111 H111      -79.4166   26.2594  -70.2690 H         1 UNK         0.0836 
    112 H112      -77.7788   23.3737  -74.0252 H         1 UNK         0.3022 
    113 H113      -76.7618   21.0621  -76.5823 H         1 UNK         0.0747 
    114 H114      -78.5553   19.7229  -75.5279 H         1 UNK         0.0793 
    115 H115      -77.1348   19.7223  -74.4974 H         1 UNK         0.0793 
    116 H116      -78.5113   20.7347  -74.0833 H         1 UNK         0.0793 
    117 H117      -79.3256   22.0679  -76.0646 H         1 UNK         0.3047 
    118 H118      -79.2123   25.0715  -77.9164 H         1 UNK         0.0822 
    119 H119      -79.1359   23.3542  -79.7285 H         1 UNK         0.0807 
    120 H120      -80.7753   23.9075  -79.4365 H         1 UNK         0.0807 
    121 H121      -80.2508   22.3367  -78.8274 H         1 UNK         0.0807 
    122 H122      -81.4417   23.6224  -77.0250 H         1 UNK         0.2946 
    123 H123      -82.6741   24.3342  -75.3635 H         1 UNK         0.1144 
    124 H124      -81.5007   22.6399  -73.9483 H         1 UNK         0.0793 
    125 H125      -82.6515   23.5706  -73.0029 H         1 UNK         0.0793 
    126 H126      -80.9281   23.9100  -72.8774 H         1 UNK         0.0793 
    127 H127      -81.7461   26.1921  -73.2763 H         1 UNK         0.2896 
@<TRIPOS>BOND
     1    1    2 1    
     2    1   67 1    
     3    1   68 1    
     4    1   69 1    
     5    2    3 2    
     6    2    4 am   BACKBONE|DICT|INTERRES
     7    4    5 1    
     8    4   70 1    
     9    5    6 1    
    10    5   65 1    
    11    5   71 1    
    12    6    7 1    
    13    6   72 1    
    14    6   73 1    
    15    7    8 1    
    16    8    9 1    
    17    8   74 1    
    18    8   75 1    
    19    9   10 ar   
    20    9   14 ar   
    21   10   11 ar   
    22   10   76 1    
    23   11   12 ar   
    24   11   48 1    
    25   12   13 ar   
    26   12   77 1    
    27   13   14 ar   
    28   13   15 1    
    29   14   78 1    
    30   15   16 1    
    31   15   79 1    
    32   15   80 1    
    33   16   17 1    
    34   17   18 1    
    35   17   81 1    
    36   17   82 1    
    37   18   19 1    
    38   18   22 1    
    39   18   83 1    
    40   19   20 am   BACKBONE|DICT|INTERRES
    41   19   21 2    
    42   20   84 1    
    43   20   85 1    
    44   22   23 am   BACKBONE|DICT|INTERRES
    45   22   86 1    
    46   23   24 2    
    47   23   25 1    
    48   25   26 1    
    49   25   27 1    
    50   25   87 1    
    51   26   88 1    
    52   26   89 1    
    53   26   90 1    
    54   27   28 am   BACKBONE|DICT|INTERRES
    55   27   91 1    
    56   28   29 2    
    57   28   30 1    
    58   30   31 1    
    59   30   32 1    
    60   30   92 1    
    61   31   93 1    
    62   31   94 1    
    63   31   95 1    
    64   32   33 am   BACKBONE|DICT|INTERRES
    65   32   96 1    
    66   33   34 2    
    67   33   35 1    
    68   35   36 1    
    69   35   37 1    
    70   35   97 1    
    71   36   98 1    
    72   36   99 1    
    73   36  100 1    
    74   37   38 am   BACKBONE|DICT|INTERRES
    75   37  101 1    
    76   38   39 2    
    77   38   40 1    
    78   40   41 1    
    79   40   42 1    
    80   40  102 1    
    81   41  103 1    
    82   41  104 1    
    83   41  105 1    
    84   42   43 am   BACKBONE|DICT|INTERRES
    85   42  106 1    
    86   43   44 2    
    87   43   45 1    
    88   45   46 1    
    89   45   49 1    
    90   45  107 1    
    91   46   47 1    
    92   46  108 1    
    93   46  109 1    
    94   47   48 1    
    95   48  110 1    
    96   48  111 1    
    97   49   50 am   BACKBONE|DICT|INTERRES
    98   49  112 1    
    99   50   51 2    
   100   50   52 1    
   101   52   53 1    
   102   52   54 1    
   103   52  113 1    
   104   53  114 1    
   105   53  115 1    
   106   53  116 1    
   107   54   55 am   BACKBONE|DICT|INTERRES
   108   54  117 1    
   109   55   56 2    
   110   55   57 1    
   111   57   58 1    
   112   57   59 1    
   113   57  118 1    
   114   58  119 1    
   115   58  120 1    
   116   58  121 1    
   117   59   60 am   BACKBONE|DICT|INTERRES
   118   59  122 1    
   119   60   61 2    
   120   60   62 1    
   121   62   63 1    
   122   62   64 1    
   123   62  123 1    
   124   63  124 1    
   125   63  125 1    
   126   63  126 1    
   127   64   65 am   BACKBONE|DICT|INTERRES
   128   64  127 1    
   129   65   66 2    
@<TRIPOS>SUBSTRUCTURE
     1 UNK         1 GROUP             0       ****    0 ROOT    
