@<TRIPOS>MOLECULE
3R135
127   129    1
SMALL
USER_CHARGES


@<TRIPOS>ATOM
      1 CA        -81.8341   23.2891  -74.3815 C.3       0 UNK        -0.1998 
      2 C         -82.4040   24.6988  -74.3336 C.2       0 UNK         0.4909 
      3 O         -83.6235   24.8677  -74.3195 O.2       0 UNK        -0.5240 
      4 N         -81.5265   25.7080  -74.3243 N.am      1 UNK        -0.4739 
      5 CA        -81.8752   27.1349  -74.3529 C.3       1 UNK         0.0864 
      6 C6        -81.0125   27.9579  -73.3586 C.3       11 UNK        -0.0881 
      7 S7        -81.2730   27.4455  -71.6309 S.3       11 UNK        -0.2682 
      8 C8        -80.2158   28.6335  -70.7382 C.3       11 UNK         0.0289 
      9 C9        -78.7703   28.1647  -70.6172 C.ar      11 UNK        -0.0687 
     10 C10       -78.4833   26.9525  -69.9831 C.ar      11 UNK        -0.0823 
     11 C11       -77.1628   26.5242  -69.8251 C.ar      11 UNK        -0.0830 
     12 C12       -76.1198   27.3374  -70.2730 C.ar      11 UNK        -0.1021 
     13 C13       -76.3879   28.5591  -70.8982 C.ar      11 UNK        -0.0753 
     14 C14       -77.7169   28.9623  -71.0785 C.ar      11 UNK        -0.0933 
     15 C15       -75.2402   29.4603  -71.3358 C.3       11 UNK         0.0166 
     16 S16       -74.1019   28.6226  -72.4826 S.3       11 UNK        -0.2615 
     17 C17       -72.9050   29.9591  -72.8152 C.3       11 UNK        -0.0865 
     18 CA        -73.3480   30.8992  -73.9743 C.3       10 UNK         0.0862 
     19 C         -72.4136   32.1374  -74.1375 C.2       10 UNK         0.5551 
     20 N         -72.2347   32.6746  -75.3383 N.am      10 UNK        -0.7319 
     21 O         -71.8683   32.6432  -73.1593 O.2       10 UNK        -0.5018 
     22 N         -73.6546   30.1801  -75.2244 N.am      10 UNK        -0.4509 
     23 C         -72.7914   29.4982  -75.9864 C.2       10 UNK         0.4899 
     24 O         -71.5920   29.3851  -75.7291 O.2       10 UNK        -0.4839 
     25 CA        -73.3894   28.8687  -77.2592 C.3       9 UNK         0.0222 
     26 CB        -73.3484   29.8534  -78.4447 C.3       9 UNK        -0.1966 
     27 N         -72.7889   27.5721  -77.5976 N.am      9 UNK        -0.4218 
     28 C         -71.5644   27.2854  -78.0635 C.2       9 UNK         0.5020 
     29 O         -70.7273   28.1260  -78.3988 O.2       9 UNK        -0.5274 
     30 CA        -71.2237   25.7810  -78.1668 C.3       8 UNK         0.0270 
     31 CB        -69.8158   25.5261  -78.7393 C.3       8 UNK        -0.1976 
     32 N         -71.3420   25.0903  -76.8760 N.am      8 UNK        -0.4313 
     33 C         -72.4948   24.7559  -76.2827 C.2       8 UNK         0.5041 
     34 O         -73.5976   24.9932  -76.7806 O.2       8 UNK        -0.5577 
     35 CA        -72.3910   24.1146  -74.8851 C.3       7 UNK         0.0284 
     36 CB        -72.0174   25.1810  -73.8389 C.3       7 UNK        -0.1958 
     37 N         -73.6293   23.4529  -74.4558 N.am      7 UNK        -0.4454 
     38 C         -74.1813   22.3834  -75.0505 C.2       7 UNK         0.5089 
     39 O         -73.6713   21.7953  -76.0055 O.2       7 UNK        -0.5125 
     40 CA        -75.5092   21.8532  -74.4824 C.3       6 UNK         0.0408 
     41 CB        -75.2433   20.6587  -73.5439 C.3       6 UNK        -0.1791 
     42 N         -76.2945   22.8842  -73.7932 N.am      6 UNK        -0.4762 
     43 C         -77.5924   22.7789  -73.4723 C.2       6 UNK         0.5007 
     44 O         -78.2965   21.8145  -73.7740 O.2       6 UNK        -0.5032 
     45 CA        -78.2157   23.9405  -72.6683 C.3       5 UNK         0.0783 
     46 C46       -78.1712   23.6522  -71.1454 C.3       11 UNK        -0.0857 
     47 S47       -76.5249   23.8836  -70.3802 S.3       11 UNK        -0.2512 
     48 C48       -76.8587   25.1918  -69.1572 C.3       11 UNK         0.0225 
     49 N         -77.6333   25.2405  -73.0237 N.am      5 UNK        -0.4615 
     50 C         -77.9013   25.8939  -74.1596 C.2       4 UNK         0.5053 
     51 O         -78.7701   25.5410  -74.9619 O.2       4 UNK        -0.5105 
     52 CA        -77.0388   27.1221  -74.4666 C.3       4 UNK         0.0263 
     53 CB        -75.6471   26.6632  -74.9283 C.3       4 UNK        -0.1981 
     54 N         -77.6811   27.9057  -75.5183 N.am      4 UNK        -0.4224 
     55 C         -77.3543   29.1441  -75.9089 C.2       3 UNK         0.4895 
     56 O         -76.4432   29.7977  -75.4017 O.2       3 UNK        -0.5091 
     57 CA        -78.1759   29.7993  -77.0380 C.3       3 UNK         0.0250 
     58 CB        -77.2913   30.1283  -78.2588 C.3       3 UNK        -0.1996 
     59 N         -79.3899   29.0631  -77.4198 N.am      3 UNK        -0.4254 
     60 C         -79.4998   27.9012  -78.0798 C.2       2 UNK         0.5004 
     61 O         -78.5500   27.2829  -78.5601 O.2       2 UNK        -0.5226 
     62 CA        -80.9113   27.2875  -78.1006 C.3       2 UNK         0.0269 
     63 CB        -81.0152   26.0639  -79.0300 C.3       2 UNK        -0.1926 
     64 N         -81.2851   26.8838  -76.7430 N.am      2 UNK        -0.4687 
     65 C         -81.7358   27.7042  -75.7811 C.2       1 UNK         0.5165 
     66 O         -81.9900   28.8923  -75.9872 O.2       1 UNK        -0.5079 
     67 H67       -80.8067   23.2802  -74.7461 H         1 UNK         0.0900 
     68 H68       -82.4280   22.6640  -75.0480 H         1 UNK         0.0900 
     69 H69       -81.8522   22.8414  -73.3883 H         1 UNK         0.0900 
     70 H70       -80.5301   25.5125  -74.3888 H         1 UNK         0.2959 
     71 H71       -82.9231   27.2675  -74.0746 H         1 UNK         0.1079 
     72 H72       -81.2601   29.0193  -73.4258 H         1 UNK         0.0837 
     73 H73       -79.9512   27.8774  -73.5938 H         1 UNK         0.0837 
     74 H74       -80.2754   29.6115  -71.2181 H         1 UNK         0.0685 
     75 H75       -80.6185   28.7643  -69.7329 H         1 UNK         0.0685 
     76 H76       -79.2966   26.3433  -69.6134 H         1 UNK         0.1434 
     77 H77       -75.0949   27.0203  -70.1341 H         1 UNK         0.1329 
     78 H78       -77.9303   29.9101  -71.5537 H         1 UNK         0.1335 
     79 H79       -75.6231   30.3618  -71.8162 H         1 UNK         0.0680 
     80 H80       -74.6892   29.7846  -70.4520 H         1 UNK         0.0680 
     81 H81       -71.9399   29.5052  -73.0448 H         1 UNK         0.1032 
     82 H82       -72.7548   30.5231  -71.8929 H         1 UNK         0.1032 
     83 H83       -74.3016   31.3344  -73.6746 H         1 UNK         0.0461 
     84 H84       -72.6836   32.2729  -76.1451 H         1 UNK         0.3453 
     85 H85       -71.6391   33.4815  -75.4369 H         1 UNK         0.3453 
     86 H86       -74.6443   30.1630  -75.4645 H         1 UNK         0.2984 
     87 H87       -74.4393   28.6505  -77.0613 H         1 UNK         0.0554 
     88 H88       -73.7735   29.4098  -79.3449 H         1 UNK         0.0847 
     89 H89       -72.3323   30.1751  -78.6745 H         1 UNK         0.0847 
     90 H90       -73.9258   30.7514  -78.2233 H         1 UNK         0.0847 
     91 H91       -73.3421   26.7588  -77.3297 H         1 UNK         0.3141 
     92 H92       -71.9429   25.3402  -78.8608 H         1 UNK         0.0743 
     93 H93       -69.0370   25.9386  -78.0966 H         1 UNK         0.0784 
     94 H94       -69.6230   24.4599  -78.8602 H         1 UNK         0.0784 
     95 H95       -69.7048   25.9855  -79.7225 H         1 UNK         0.0784 
     96 H96       -70.4763   24.9068  -76.3888 H         1 UNK         0.3213 
     97 H97       -71.6037   23.3583  -74.9172 H         1 UNK         0.0855 
     98 H98       -71.0616   25.6504  -74.0752 H         1 UNK         0.0814 
     99 H99       -72.7602   25.9780  -73.7877 H         1 UNK         0.0814 
    100 H100      -71.9204   24.7477  -72.8432 H         1 UNK         0.0814 
    101 H101      -74.0665   23.8353  -73.6346 H         1 UNK         0.3105 
    102 H102      -76.0931   21.5005  -75.3353 H         1 UNK         0.0547 
    103 H103      -74.6243   19.9052  -74.0331 H         1 UNK         0.0837 
    104 H104      -74.7240   20.9695  -72.6367 H         1 UNK         0.0837 
    105 H105      -76.1683   20.1648  -73.2470 H         1 UNK         0.0837 
    106 H106      -75.8210   23.7381  -73.5464 H         1 UNK         0.3020 
    107 H107      -79.2704   23.9660  -72.9477 H         1 UNK         0.1245 
    108 H108      -78.5037   22.6335  -70.9354 H         1 UNK         0.0781 
    109 H109      -78.8998   24.2865  -70.6426 H         1 UNK         0.0781 
    110 H110      -75.9872   25.2991  -68.5096 H         1 UNK         0.0836 
    111 H111      -77.6809   24.8853  -68.5084 H         1 UNK         0.0836 
    112 H112      -76.9575   25.6162  -72.3723 H         1 UNK         0.3022 
    113 H113      -76.9557   27.7332  -73.5675 H         1 UNK         0.0747 
    114 H114      -75.1658   26.0353  -74.1797 H         1 UNK         0.0793 
    115 H115      -75.7126   26.0890  -75.8524 H         1 UNK         0.0793 
    116 H116      -74.9824   27.5060  -75.1018 H         1 UNK         0.0793 
    117 H117      -78.4247   27.4142  -75.9980 H         1 UNK         0.3047 
    118 H118      -78.5309   30.7473  -76.6309 H         1 UNK         0.0822 
    119 H119      -77.8693   30.5960  -79.0556 H         1 UNK         0.0807 
    120 H120      -76.8100   29.2393  -78.6673 H         1 UNK         0.0807 
    121 H121      -76.4975   30.8240  -77.9848 H         1 UNK         0.0807 
    122 H122      -80.2491   29.4293  -77.0216 H         1 UNK         0.2946 
    123 H123      -81.6055   28.0493  -78.4638 H         1 UNK         0.1144 
    124 H124      -82.0330   25.6745  -79.0591 H         1 UNK         0.0793 
    125 H125      -80.3561   25.2548  -78.7121 H         1 UNK         0.0793 
    126 H126      -80.7400   26.3269  -80.0523 H         1 UNK         0.0793 
    127 H127      -81.0674   25.9326  -76.4815 H         1 UNK         0.2896 
@<TRIPOS>BOND
     1    1    2 1    
     2    1   67 1    
     3    1   68 1    
     4    1   69 1    
     5    2    3 2    
     6    2    4 am   BACKBONE|DICT|INTERRES
     7    4    5 1    
     8    4   70 1    
     9    5    6 1    
    10    5   65 1    
    11    5   71 1    
    12    6    7 1    
    13    6   72 1    
    14    6   73 1    
    15    7    8 1    
    16    8    9 1    
    17    8   74 1    
    18    8   75 1    
    19    9   10 ar   
    20    9   14 ar   
    21   10   11 ar   
    22   10   76 1    
    23   11   12 ar   
    24   11   48 1    
    25   12   13 ar   
    26   12   77 1    
    27   13   14 ar   
    28   13   15 1    
    29   14   78 1    
    30   15   16 1    
    31   15   79 1    
    32   15   80 1    
    33   16   17 1    
    34   17   18 1    
    35   17   81 1    
    36   17   82 1    
    37   18   19 1    
    38   18   22 1    
    39   18   83 1    
    40   19   20 am   BACKBONE|DICT|INTERRES
    41   19   21 2    
    42   20   84 1    
    43   20   85 1    
    44   22   23 am   BACKBONE|DICT|INTERRES
    45   22   86 1    
    46   23   24 2    
    47   23   25 1    
    48   25   26 1    
    49   25   27 1    
    50   25   87 1    
    51   26   88 1    
    52   26   89 1    
    53   26   90 1    
    54   27   28 am   BACKBONE|DICT|INTERRES
    55   27   91 1    
    56   28   29 2    
    57   28   30 1    
    58   30   31 1    
    59   30   32 1    
    60   30   92 1    
    61   31   93 1    
    62   31   94 1    
    63   31   95 1    
    64   32   33 am   BACKBONE|DICT|INTERRES
    65   32   96 1    
    66   33   34 2    
    67   33   35 1    
    68   35   36 1    
    69   35   37 1    
    70   35   97 1    
    71   36   98 1    
    72   36   99 1    
    73   36  100 1    
    74   37   38 am   BACKBONE|DICT|INTERRES
    75   37  101 1    
    76   38   39 2    
    77   38   40 1    
    78   40   41 1    
    79   40   42 1    
    80   40  102 1    
    81   41  103 1    
    82   41  104 1    
    83   41  105 1    
    84   42   43 am   BACKBONE|DICT|INTERRES
    85   42  106 1    
    86   43   44 2    
    87   43   45 1    
    88   45   46 1    
    89   45   49 1    
    90   45  107 1    
    91   46   47 1    
    92   46  108 1    
    93   46  109 1    
    94   47   48 1    
    95   48  110 1    
    96   48  111 1    
    97   49   50 am   BACKBONE|DICT|INTERRES
    98   49  112 1    
    99   50   51 2    
   100   50   52 1    
   101   52   53 1    
   102   52   54 1    
   103   52  113 1    
   104   53  114 1    
   105   53  115 1    
   106   53  116 1    
   107   54   55 am   BACKBONE|DICT|INTERRES
   108   54  117 1    
   109   55   56 2    
   110   55   57 1    
   111   57   58 1    
   112   57   59 1    
   113   57  118 1    
   114   58  119 1    
   115   58  120 1    
   116   58  121 1    
   117   59   60 am   BACKBONE|DICT|INTERRES
   118   59  122 1    
   119   60   61 2    
   120   60   62 1    
   121   62   63 1    
   122   62   64 1    
   123   62  123 1    
   124   63  124 1    
   125   63  125 1    
   126   63  126 1    
   127   64   65 am   BACKBONE|DICT|INTERRES
   128   64  127 1    
   129   65   66 2    
@<TRIPOS>SUBSTRUCTURE
     1 UNK         1 GROUP             0       ****    0 ROOT    
