@<TRIPOS>MOLECULE
3R135
127   129    1
SMALL
USER_CHARGES


@<TRIPOS>ATOM
      1 CA        -79.2538   25.3690  -69.2510 C.3       0 UNK        -0.1998 
      2 C         -80.6493   25.6260  -69.7996 C.2       0 UNK         0.4909 
      3 O         -81.6206   25.0620  -69.2956 O.2       0 UNK        -0.5240 
      4 N         -80.7536   26.4664  -70.8371 N.am      1 UNK        -0.4739 
      5 CA        -82.0132   26.8126  -71.5152 C.3       1 UNK         0.0864 
      6 C6        -81.9650   28.2206  -72.1680 C.3       11 UNK        -0.0881 
      7 S7        -81.5303   29.5320  -70.9691 S.3       11 UNK        -0.2682 
      8 C8        -80.5822   30.7176  -71.9941 C.3       11 UNK         0.0289 
      9 C9        -79.3018   30.1802  -72.6398 C.ar      11 UNK        -0.0687 
     10 C10       -78.6607   29.0195  -72.1888 C.ar      11 UNK        -0.0823 
     11 C11       -77.5421   28.5159  -72.8550 C.ar      11 UNK        -0.0830 
     12 C12       -77.0108   29.2193  -73.9372 C.ar      11 UNK        -0.1021 
     13 C13       -77.5959   30.4157  -74.3585 C.ar      11 UNK        -0.0753 
     14 C14       -78.7506   30.8788  -73.7201 C.ar      11 UNK        -0.0933 
     15 C15       -76.9781   31.2032  -75.5047 C.3       11 UNK         0.0166 
     16 S16       -76.0809   32.6850  -74.9341 S.3       11 UNK        -0.2615 
     17 C17       -74.8202   31.9921  -73.8056 C.3       11 UNK        -0.0865 
     18 CA        -73.6014   31.3536  -74.5288 C.3       10 UNK         0.0862 
     19 C         -72.5642   32.4259  -74.9821 C.2       10 UNK         0.5551 
     20 N         -71.3884   32.5064  -74.3702 N.am      10 UNK        -0.7319 
     21 O         -72.8235   33.1876  -75.9100 O.2       10 UNK        -0.5018 
     22 N         -73.0411   30.2538  -73.7228 N.am      10 UNK        -0.4509 
     23 C         -72.2334   29.2927  -74.1906 C.2       10 UNK         0.4899 
     24 O         -71.8688   29.2274  -75.3643 O.2       10 UNK        -0.4839 
     25 CA        -71.7403   28.2391  -73.1803 C.3       9 UNK         0.0222 
     26 CB        -72.7048   28.0284  -71.9955 C.3       9 UNK        -0.1966 
     27 N         -71.5431   26.9534  -73.8507 N.am      9 UNK        -0.4218 
     28 C         -70.3602   26.4164  -74.1773 C.2       9 UNK         0.5020 
     29 O         -69.2730   26.9459  -73.9411 O.2       9 UNK        -0.5274 
     30 CA        -70.3876   25.0475  -74.8737 C.3       8 UNK         0.0270 
     31 CB        -70.7226   23.9348  -73.8652 C.3       8 UNK        -0.1976 
     32 N         -71.3634   25.0197  -75.9647 N.am      8 UNK        -0.4313 
     33 C         -71.0615   24.9449  -77.2695 C.2       8 UNK         0.5041 
     34 O         -69.9109   24.8771  -77.7045 O.2       8 UNK        -0.5577 
     35 CA        -72.2346   24.9276  -78.2709 C.3       7 UNK         0.0284 
     36 CB        -72.5421   23.4870  -78.7098 C.3       7 UNK        -0.1958 
     37 N         -73.4511   25.5372  -77.7301 N.am      7 UNK        -0.4454 
     38 C         -73.6019   26.8547  -77.5262 C.2       7 UNK         0.5089 
     39 O         -72.8128   27.6948  -77.9565 O.2       7 UNK        -0.5125 
     40 CA        -74.8155   27.3225  -76.6962 C.3       6 UNK         0.0408 
     41 CB        -75.7959   28.1066  -77.5816 C.3       6 UNK        -0.1791 
     42 N         -75.5358   26.2392  -76.0147 N.am      6 UNK        -0.4762 
     43 C         -75.0367   25.4668  -75.0341 C.2       6 UNK         0.5007 
     44 O         -73.9110   25.6305  -74.5614 O.2       6 UNK        -0.5032 
     45 CA        -75.8905   24.2743  -74.5409 C.3       5 UNK         0.0783 
     46 C46       -76.5058   24.5275  -73.1402 C.3       11 UNK        -0.0857 
     47 S47       -77.8238   25.7940  -73.1256 S.3       11 UNK        -0.2512 
     48 C48       -76.9158   27.2046  -72.4187 C.3       11 UNK         0.0225 
     49 N         -76.9041   23.8446  -75.5084 N.am      5 UNK        -0.4615 
     50 C         -76.6638   23.3776  -76.7417 C.2       4 UNK         0.5053 
     51 O         -75.5321   23.1885  -77.1874 O.2       4 UNK        -0.5105 
     52 CA        -77.8877   23.1364  -77.6455 C.3       4 UNK         0.0263 
     53 CB        -78.2836   21.6520  -77.6247 C.3       4 UNK        -0.1981 
     54 N         -79.0542   23.9504  -77.2831 N.am      4 UNK        -0.4224 
     55 C         -79.1047   25.2895  -77.2787 C.2       3 UNK         0.4895 
     56 O         -78.1706   26.0018  -77.6411 O.2       3 UNK        -0.5091 
     57 CA        -80.3711   25.9517  -76.7092 C.3       3 UNK         0.0250 
     58 CB        -81.4841   26.0480  -77.7703 C.3       3 UNK        -0.1996 
     59 N         -80.8473   25.3390  -75.4590 N.am      3 UNK        -0.4254 
     60 C         -81.3862   24.1256  -75.2610 C.2       2 UNK         0.5004 
     61 O         -81.5918   23.3140  -76.1642 O.2       2 UNK        -0.5226 
     62 CA        -81.6842   23.7116  -73.8095 C.3       2 UNK         0.0269 
     63 CB        -80.7708   22.5452  -73.3928 C.3       2 UNK        -0.1926 
     64 N         -81.5046   24.8023  -72.8486 N.am      2 UNK        -0.4687 
     65 C         -82.4161   25.7414  -72.5541 C.2       1 UNK         0.5165 
     66 O         -83.5303   25.7894  -73.0761 O.2       1 UNK        -0.5079 
     67 H67       -79.2080   25.6460  -68.1982 H         1 UNK         0.0900 
     68 H68       -78.4935   25.9385  -69.7842 H         1 UNK         0.0900 
     69 H69       -79.0062   24.3114  -69.3368 H         1 UNK         0.0900 
     70 H70       -79.9221   26.8893  -71.2201 H         1 UNK         0.2959 
     71 H71       -82.8109   26.8269  -70.7687 H         1 UNK         0.1079 
     72 H72       -81.2596   28.2313  -73.0004 H         1 UNK         0.0837 
     73 H73       -82.9367   28.4750  -72.5961 H         1 UNK         0.0837 
     74 H74       -80.3186   31.5730  -71.3710 H         1 UNK         0.0685 
     75 H75       -81.2481   31.0959  -72.7714 H         1 UNK         0.0685 
     76 H76       -79.0398   28.4898  -71.3301 H         1 UNK         0.1434 
     77 H77       -76.1338   28.8418  -74.4437 H         1 UNK         0.1329 
     78 H78       -79.2153   31.7936  -74.0624 H         1 UNK         0.1335 
     79 H79       -77.7629   31.5102  -76.1973 H         1 UNK         0.0680 
     80 H80       -76.2940   30.5789  -76.0790 H         1 UNK         0.0680 
     81 H81       -74.4943   32.7820  -73.1261 H         1 UNK         0.1032 
     82 H82       -75.3131   31.2639  -73.1617 H         1 UNK         0.1032 
     83 H83       -73.9668   30.8882  -75.4462 H         1 UNK         0.0461 
     84 H84       -70.7199   33.1971  -74.6731 H         1 UNK         0.3453 
     85 H85       -71.1615   31.8812  -73.6140 H         1 UNK         0.3453 
     86 H86       -73.2706   30.2567  -72.7402 H         1 UNK         0.2984 
     87 H87       -70.7927   28.6034  -72.7792 H         1 UNK         0.0554 
     88 H88       -72.3603   27.2208  -71.3490 H         1 UNK         0.0847 
     89 H89       -73.7075   27.7717  -72.3345 H         1 UNK         0.0847 
     90 H90       -72.7782   28.9183  -71.3697 H         1 UNK         0.0847 
     91 H91       -72.3949   26.4582  -74.1078 H         1 UNK         0.3141 
     92 H92       -69.3833   24.8562  -75.2577 H         1 UNK         0.0743 
     93 H93       -71.7225   24.0518  -73.4449 H         1 UNK         0.0784 
     94 H94       -70.6705   22.9513  -74.3325 H         1 UNK         0.0784 
     95 H95       -70.0162   23.9359  -73.0339 H         1 UNK         0.0784 
     96 H96       -72.3373   25.1108  -75.6981 H         1 UNK         0.3213 
     97 H97       -71.9260   25.4946  -79.1520 H         1 UNK         0.0855 
     98 H98       -72.8403   22.8628  -77.8664 H         1 UNK         0.0814 
     99 H99       -71.6662   23.0228  -79.1651 H         1 UNK         0.0814 
    100 H100      -73.3445   23.4584  -79.4472 H         1 UNK         0.0814 
    101 H101      -74.1746   24.9047  -77.4071 H         1 UNK         0.3105 
    102 H102      -74.4374   27.9984  -75.9274 H         1 UNK         0.0547 
    103 H103      -75.3305   29.0138  -77.9690 H         1 UNK         0.0837 
    104 H104      -76.1195   27.5171  -78.4402 H         1 UNK         0.0837 
    105 H105      -76.6871   28.4048  -77.0297 H         1 UNK         0.0837 
    106 H106      -76.4618   26.0310  -76.3739 H         1 UNK         0.3020 
    107 H107      -75.1908   23.4413  -74.4386 H         1 UNK         0.1245 
    108 H108      -75.7285   24.7853  -72.4179 H         1 UNK         0.0781 
    109 H109      -76.9427   23.5996  -72.7676 H         1 UNK         0.0781 
    110 H110      -76.9007   27.1291  -71.3307 H         1 UNK         0.0836 
    111 H111      -75.8765   27.1723  -72.7430 H         1 UNK         0.0836 
    112 H112      -77.8631   23.9898  -75.2311 H         1 UNK         0.3022 
    113 H113      -77.5988   23.4051  -78.6636 H         1 UNK         0.0747 
    114 H114      -79.0936   21.4479  -78.3253 H         1 UNK         0.0793 
    115 H115      -77.4423   21.0188  -77.9104 H         1 UNK         0.0793 
    116 H116      -78.6100   21.3352  -76.6331 H         1 UNK         0.0793 
    117 H117      -79.8900   23.4592  -76.9744 H         1 UNK         0.3047 
    118 H118      -80.0902   26.9722  -76.4421 H         1 UNK         0.0822 
    119 H119      -82.3610   26.5632  -77.3782 H         1 UNK         0.0807 
    120 H120      -81.8021   25.0674  -78.1253 H         1 UNK         0.0807 
    121 H121      -81.1406   26.6090  -78.6405 H         1 UNK         0.0807 
    122 H122      -80.6852   25.8925  -74.6299 H         1 UNK         0.2946 
    123 H123      -82.7217   23.3705  -73.7764 H         1 UNK         0.1144 
    124 H124      -81.0017   22.2026  -72.3839 H         1 UNK         0.0793 
    125 H125      -79.7170   22.8262  -73.4186 H         1 UNK         0.0793 
    126 H126      -80.8966   21.6897  -74.0581 H         1 UNK         0.0793 
    127 H127      -80.6192   24.8390  -72.3638 H         1 UNK         0.2896 
@<TRIPOS>BOND
     1    1    2 1    
     2    1   67 1    
     3    1   68 1    
     4    1   69 1    
     5    2    3 2    
     6    2    4 am   BACKBONE|DICT|INTERRES
     7    4    5 1    
     8    4   70 1    
     9    5    6 1    
    10    5   65 1    
    11    5   71 1    
    12    6    7 1    
    13    6   72 1    
    14    6   73 1    
    15    7    8 1    
    16    8    9 1    
    17    8   74 1    
    18    8   75 1    
    19    9   10 ar   
    20    9   14 ar   
    21   10   11 ar   
    22   10   76 1    
    23   11   12 ar   
    24   11   48 1    
    25   12   13 ar   
    26   12   77 1    
    27   13   14 ar   
    28   13   15 1    
    29   14   78 1    
    30   15   16 1    
    31   15   79 1    
    32   15   80 1    
    33   16   17 1    
    34   17   18 1    
    35   17   81 1    
    36   17   82 1    
    37   18   19 1    
    38   18   22 1    
    39   18   83 1    
    40   19   20 am   BACKBONE|DICT|INTERRES
    41   19   21 2    
    42   20   84 1    
    43   20   85 1    
    44   22   23 am   BACKBONE|DICT|INTERRES
    45   22   86 1    
    46   23   24 2    
    47   23   25 1    
    48   25   26 1    
    49   25   27 1    
    50   25   87 1    
    51   26   88 1    
    52   26   89 1    
    53   26   90 1    
    54   27   28 am   BACKBONE|DICT|INTERRES
    55   27   91 1    
    56   28   29 2    
    57   28   30 1    
    58   30   31 1    
    59   30   32 1    
    60   30   92 1    
    61   31   93 1    
    62   31   94 1    
    63   31   95 1    
    64   32   33 am   BACKBONE|DICT|INTERRES
    65   32   96 1    
    66   33   34 2    
    67   33   35 1    
    68   35   36 1    
    69   35   37 1    
    70   35   97 1    
    71   36   98 1    
    72   36   99 1    
    73   36  100 1    
    74   37   38 am   BACKBONE|DICT|INTERRES
    75   37  101 1    
    76   38   39 2    
    77   38   40 1    
    78   40   41 1    
    79   40   42 1    
    80   40  102 1    
    81   41  103 1    
    82   41  104 1    
    83   41  105 1    
    84   42   43 am   BACKBONE|DICT|INTERRES
    85   42  106 1    
    86   43   44 2    
    87   43   45 1    
    88   45   46 1    
    89   45   49 1    
    90   45  107 1    
    91   46   47 1    
    92   46  108 1    
    93   46  109 1    
    94   47   48 1    
    95   48  110 1    
    96   48  111 1    
    97   49   50 am   BACKBONE|DICT|INTERRES
    98   49  112 1    
    99   50   51 2    
   100   50   52 1    
   101   52   53 1    
   102   52   54 1    
   103   52  113 1    
   104   53  114 1    
   105   53  115 1    
   106   53  116 1    
   107   54   55 am   BACKBONE|DICT|INTERRES
   108   54  117 1    
   109   55   56 2    
   110   55   57 1    
   111   57   58 1    
   112   57   59 1    
   113   57  118 1    
   114   58  119 1    
   115   58  120 1    
   116   58  121 1    
   117   59   60 am   BACKBONE|DICT|INTERRES
   118   59  122 1    
   119   60   61 2    
   120   60   62 1    
   121   62   63 1    
   122   62   64 1    
   123   62  123 1    
   124   63  124 1    
   125   63  125 1    
   126   63  126 1    
   127   64   65 am   BACKBONE|DICT|INTERRES
   128   64  127 1    
   129   65   66 2    
@<TRIPOS>SUBSTRUCTURE
     1 UNK         1 GROUP             0       ****    0 ROOT    
