@<TRIPOS>MOLECULE
3R135
127   129    1
SMALL
USER_CHARGES


@<TRIPOS>ATOM
      1 CA        -79.0165   21.7911  -72.0854 C.3       0 UNK        -0.1998 
      2 C         -80.0782   22.7689  -72.5643 C.2       0 UNK         0.4909 
      3 O         -80.6272   22.5962  -73.6533 O.2       0 UNK        -0.5240 
      4 N         -80.3635   23.7974  -71.7562 N.am      1 UNK        -0.4739 
      5 CA        -81.3044   24.8911  -72.0244 C.3       1 UNK         0.0864 
      6 C6        -81.4549   25.8419  -70.8011 C.3       11 UNK        -0.0881 
      7 S7        -79.9017   26.2108  -69.8952 S.3       11 UNK        -0.2682 
      8 C8        -80.0454   27.9924  -69.5465 C.3       11 UNK         0.0289 
      9 C9        -79.2816   28.8390  -70.5553 C.ar      11 UNK        -0.0687 
     10 C10       -79.8177   29.0749  -71.8238 C.ar      11 UNK        -0.0823 
     11 C11       -79.1417   29.8670  -72.7558 C.ar      11 UNK        -0.0830 
     12 C12       -77.9246   30.4530  -72.3840 C.ar      11 UNK        -0.1021 
     13 C13       -77.3721   30.2309  -71.1193 C.ar      11 UNK        -0.0753 
     14 C14       -78.0524   29.4130  -70.2117 C.ar      11 UNK        -0.0933 
     15 C15       -76.0867   30.9420  -70.7069 C.3       11 UNK         0.0166 
     16 S16       -74.7637   30.8358  -71.9598 S.3       11 UNK        -0.2615 
     17 C17       -73.8804   29.3272  -71.4455 C.3       11 UNK        -0.0865 
     18 CA        -72.4890   29.2240  -72.1277 C.3       10 UNK         0.0862 
     19 C         -71.5679   28.1843  -71.4193 C.2       10 UNK         0.5551 
     20 N         -70.8879   27.2863  -72.1217 N.am      10 UNK        -0.7319 
     21 O         -71.4528   28.2010  -70.1961 O.2       10 UNK        -0.5018 
     22 N         -72.6270   29.0211  -73.5784 N.am      10 UNK        -0.4509 
     23 C         -71.7524   29.4117  -74.5113 C.2       10 UNK         0.4899 
     24 O         -70.7493   30.0873  -74.2744 O.2       10 UNK        -0.4839 
     25 CA        -72.0416   28.9148  -75.9443 C.3       9 UNK         0.0222 
     26 CB        -70.9188   29.2618  -76.9440 C.3       9 UNK        -0.1966 
     27 N         -72.3435   27.4759  -75.9838 N.am      9 UNK        -0.4218 
     28 C         -71.5760   26.4800  -75.5120 C.2       9 UNK         0.5020 
     29 O         -70.4545   26.6440  -75.0302 O.2       9 UNK        -0.5274 
     30 CA        -72.1686   25.0622  -75.5160 C.3       8 UNK         0.0270 
     31 CB        -72.7559   24.7376  -74.1337 C.3       8 UNK        -0.1976 
     32 N         -73.1810   24.8457  -76.5549 N.am      8 UNK        -0.4313 
     33 C         -72.8718   24.6410  -77.8431 C.2       8 UNK         0.5041 
     34 O         -71.7260   24.7068  -78.2908 O.2       8 UNK        -0.5577 
     35 CA        -74.0195   24.2818  -78.7914 C.3       7 UNK         0.0284 
     36 CB        -74.5216   22.8497  -78.5325 C.3       7 UNK        -0.1958 
     37 N         -75.1308   25.2269  -78.6717 N.am      7 UNK        -0.4454 
     38 C         -75.4553   26.1151  -79.6191 C.2       7 UNK         0.5089 
     39 O         -74.8115   26.2797  -80.6565 O.2       7 UNK        -0.5125 
     40 CA        -76.7345   26.9398  -79.4132 C.3       6 UNK         0.0408 
     41 CB        -77.9535   26.1742  -79.9522 C.3       6 UNK        -0.1791 
     42 N         -76.9970   27.3618  -78.0359 N.am      6 UNK        -0.4762 
     43 C         -76.2879   28.2964  -77.3857 C.2       6 UNK         0.5007 
     44 O         -75.1989   28.7240  -77.7686 O.2       6 UNK        -0.5032 
     45 CA        -76.9423   28.8935  -76.1238 C.3       5 UNK         0.0783 
     46 C46       -78.2788   29.5932  -76.4949 C.3       11 UNK        -0.0857 
     47 S47       -78.7419   30.9371  -75.3595 S.3       11 UNK        -0.2512 
     48 C48       -79.7898   30.0896  -74.1240 C.3       11 UNK         0.0225 
     49 N         -77.1219   27.8519  -75.1135 N.am      5 UNK        -0.4615 
     50 C         -76.1254   27.2999  -74.4085 C.2       4 UNK         0.5053 
     51 O         -74.9671   27.7122  -74.4137 O.2       4 UNK        -0.5105 
     52 CA        -76.4602   26.0174  -73.6296 C.3       4 UNK         0.0263 
     53 CB        -76.9737   26.3374  -72.2193 C.3       4 UNK        -0.1981 
     54 N         -77.4181   25.1823  -74.3594 N.am      4 UNK        -0.4224 
     55 C         -77.1158   24.5552  -75.5086 C.2       3 UNK         0.4895 
     56 O         -75.9885   24.5677  -76.0056 O.2       3 UNK        -0.5091 
     57 CA        -78.2410   23.8289  -76.2659 C.3       3 UNK         0.0250 
     58 CB        -78.1575   22.3119  -76.0419 C.3       3 UNK        -0.1996 
     59 N         -79.5800   24.3143  -75.9246 N.am      3 UNK        -0.4254 
     60 C         -80.0582   25.5113  -76.2989 C.2       2 UNK         0.5004 
     61 O         -79.4332   26.3010  -77.0065 O.2       2 UNK        -0.5226 
     62 CA        -81.4315   25.9314  -75.7420 C.3       2 UNK         0.0269 
     63 CB        -82.5528   25.5071  -76.7027 C.3       2 UNK        -0.1926 
     64 N         -81.7102   25.4076  -74.3988 N.am      2 UNK        -0.4687 
     65 C         -80.9417   25.6378  -73.3245 C.2       1 UNK         0.5165 
     66 O         -79.9412   26.3507  -73.3632 O.2       1 UNK        -0.5079 
     67 H67       -78.8735   21.8494  -71.0065 H         1 UNK         0.0900 
     68 H68       -78.0629   22.0039  -72.5674 H         1 UNK         0.0900 
     69 H69       -79.3050   20.7694  -72.3313 H         1 UNK         0.0900 
     70 H70       -79.8493   23.9032  -70.8924 H         1 UNK         0.2959 
     71 H71       -82.2799   24.4272  -72.1855 H         1 UNK         0.1079 
     72 H72       -81.9534   26.7682  -71.0916 H         1 UNK         0.0837 
     73 H73       -82.1272   25.3758  -70.0792 H         1 UNK         0.0837 
     74 H74       -81.0935   28.2934  -69.5207 H         1 UNK         0.0685 
     75 H75       -79.6604   28.1739  -68.5420 H         1 UNK         0.0685 
     76 H76       -80.7659   28.6303  -72.0906 H         1 UNK         0.1434 
     77 H77       -77.3961   31.1014  -73.0667 H         1 UNK         0.1329 
     78 H78       -77.6398   29.2452  -69.2263 H         1 UNK         0.1335 
     79 H79       -76.3218   31.9955  -70.5507 H         1 UNK         0.0680 
     80 H80       -75.7205   30.5689  -69.7495 H         1 UNK         0.0680 
     81 H81       -74.4920   28.4543  -71.6759 H         1 UNK         0.1032 
     82 H82       -73.7783   29.3547  -70.3592 H         1 UNK         0.1032 
     83 H83       -71.9859   30.1807  -71.9750 H         1 UNK         0.0461 
     84 H84       -70.2951   26.6351  -71.6328 H         1 UNK         0.3453 
     85 H85       -70.9073   27.2817  -73.1341 H         1 UNK         0.3453 
     86 H86       -73.4423   28.4859  -73.8750 H         1 UNK         0.2984 
     87 H87       -72.9470   29.4288  -76.2698 H         1 UNK         0.0554 
     88 H88       -71.1690   28.9278  -77.9509 H         1 UNK         0.0847 
     89 H89       -69.9703   28.8022  -76.6641 H         1 UNK         0.0847 
     90 H90       -70.7570   30.3393  -76.9910 H         1 UNK         0.0847 
     91 H91       -73.2731   27.2382  -76.3026 H         1 UNK         0.3141 
     92 H92       -71.3492   24.3628  -75.6973 H         1 UNK         0.0743 
     93 H93       -73.3840   25.5475  -73.7675 H         1 UNK         0.0784 
     94 H94       -73.3439   23.8196  -74.1429 H         1 UNK         0.0784 
     95 H95       -71.9582   24.6061  -73.4016 H         1 UNK         0.0784 
     96 H96       -74.1521   24.7581  -76.2602 H         1 UNK         0.3213 
     97 H97       -73.6135   24.2973  -79.8053 H         1 UNK         0.0855 
     98 H98       -74.9184   22.7243  -77.5254 H         1 UNK         0.0814 
     99 H99       -73.7124   22.1282  -78.6527 H         1 UNK         0.0814 
    100 H100      -75.3069   22.5742  -79.2364 H         1 UNK         0.0814 
    101 H101      -75.6787   25.1798  -77.8183 H         1 UNK         0.3105 
    102 H102      -76.6288   27.8471  -80.0121 H         1 UNK         0.0547 
    103 H103      -77.8081   25.8914  -80.9957 H         1 UNK         0.0837 
    104 H104      -78.1382   25.2590  -79.3899 H         1 UNK         0.0837 
    105 H105      -78.8571   26.7821  -79.9053 H         1 UNK         0.0837 
    106 H106      -77.8767   27.0432  -77.6312 H         1 UNK         0.3020 
    107 H107      -76.2504   29.6416  -75.7288 H         1 UNK         0.1245 
    108 H108      -79.0974   28.8782  -76.5826 H         1 UNK         0.0781 
    109 H109      -78.2061   30.0662  -77.4770 H         1 UNK         0.0781 
    110 H110      -80.1280   29.1311  -74.5205 H         1 UNK         0.0836 
    111 H111      -80.6875   30.6919  -73.9787 H         1 UNK         0.0836 
    112 H112      -78.0422   27.4424  -75.0417 H         1 UNK         0.3022 
    113 H113      -75.5494   25.4322  -73.5162 H         1 UNK         0.0747 
    114 H114      -77.3303   25.4440  -71.7070 H         1 UNK         0.0793 
    115 H115      -76.1832   26.7700  -71.6067 H         1 UNK         0.0793 
    116 H116      -77.7875   27.0603  -72.2398 H         1 UNK         0.0793 
    117 H117      -78.3790   25.2135  -74.0371 H         1 UNK         0.3047 
    118 H118      -78.0794   24.0130  -77.3296 H         1 UNK         0.0822 
    119 H119      -78.9176   21.7834  -76.6174 H         1 UNK         0.0807 
    120 H120      -78.2875   22.0475  -74.9937 H         1 UNK         0.0807 
    121 H121      -77.1871   21.9248  -76.3559 H         1 UNK         0.0807 
    122 H122      -80.1348   23.7346  -75.3015 H         1 UNK         0.2946 
    123 H123      -81.4290   27.0218  -75.6765 H         1 UNK         0.1144 
    124 H124      -82.3772   25.9011  -77.7049 H         1 UNK         0.0793 
    125 H125      -83.5215   25.8839  -76.3740 H         1 UNK         0.0793 
    126 H126      -82.6238   24.4219  -76.7867 H         1 UNK         0.0793 
    127 H127      -82.4897   24.7704  -74.3146 H         1 UNK         0.2896 
@<TRIPOS>BOND
     1    1    2 1    
     2    1   67 1    
     3    1   68 1    
     4    1   69 1    
     5    2    3 2    
     6    2    4 am   BACKBONE|DICT|INTERRES
     7    4    5 1    
     8    4   70 1    
     9    5    6 1    
    10    5   65 1    
    11    5   71 1    
    12    6    7 1    
    13    6   72 1    
    14    6   73 1    
    15    7    8 1    
    16    8    9 1    
    17    8   74 1    
    18    8   75 1    
    19    9   10 ar   
    20    9   14 ar   
    21   10   11 ar   
    22   10   76 1    
    23   11   12 ar   
    24   11   48 1    
    25   12   13 ar   
    26   12   77 1    
    27   13   14 ar   
    28   13   15 1    
    29   14   78 1    
    30   15   16 1    
    31   15   79 1    
    32   15   80 1    
    33   16   17 1    
    34   17   18 1    
    35   17   81 1    
    36   17   82 1    
    37   18   19 1    
    38   18   22 1    
    39   18   83 1    
    40   19   20 am   BACKBONE|DICT|INTERRES
    41   19   21 2    
    42   20   84 1    
    43   20   85 1    
    44   22   23 am   BACKBONE|DICT|INTERRES
    45   22   86 1    
    46   23   24 2    
    47   23   25 1    
    48   25   26 1    
    49   25   27 1    
    50   25   87 1    
    51   26   88 1    
    52   26   89 1    
    53   26   90 1    
    54   27   28 am   BACKBONE|DICT|INTERRES
    55   27   91 1    
    56   28   29 2    
    57   28   30 1    
    58   30   31 1    
    59   30   32 1    
    60   30   92 1    
    61   31   93 1    
    62   31   94 1    
    63   31   95 1    
    64   32   33 am   BACKBONE|DICT|INTERRES
    65   32   96 1    
    66   33   34 2    
    67   33   35 1    
    68   35   36 1    
    69   35   37 1    
    70   35   97 1    
    71   36   98 1    
    72   36   99 1    
    73   36  100 1    
    74   37   38 am   BACKBONE|DICT|INTERRES
    75   37  101 1    
    76   38   39 2    
    77   38   40 1    
    78   40   41 1    
    79   40   42 1    
    80   40  102 1    
    81   41  103 1    
    82   41  104 1    
    83   41  105 1    
    84   42   43 am   BACKBONE|DICT|INTERRES
    85   42  106 1    
    86   43   44 2    
    87   43   45 1    
    88   45   46 1    
    89   45   49 1    
    90   45  107 1    
    91   46   47 1    
    92   46  108 1    
    93   46  109 1    
    94   47   48 1    
    95   48  110 1    
    96   48  111 1    
    97   49   50 am   BACKBONE|DICT|INTERRES
    98   49  112 1    
    99   50   51 2    
   100   50   52 1    
   101   52   53 1    
   102   52   54 1    
   103   52  113 1    
   104   53  114 1    
   105   53  115 1    
   106   53  116 1    
   107   54   55 am   BACKBONE|DICT|INTERRES
   108   54  117 1    
   109   55   56 2    
   110   55   57 1    
   111   57   58 1    
   112   57   59 1    
   113   57  118 1    
   114   58  119 1    
   115   58  120 1    
   116   58  121 1    
   117   59   60 am   BACKBONE|DICT|INTERRES
   118   59  122 1    
   119   60   61 2    
   120   60   62 1    
   121   62   63 1    
   122   62   64 1    
   123   62  123 1    
   124   63  124 1    
   125   63  125 1    
   126   63  126 1    
   127   64   65 am   BACKBONE|DICT|INTERRES
   128   64  127 1    
   129   65   66 2    
@<TRIPOS>SUBSTRUCTURE
     1 UNK         1 GROUP             0       ****    0 ROOT    
