@<TRIPOS>MOLECULE
3R135
127   129    1
SMALL
USER_CHARGES


@<TRIPOS>ATOM
      1 CA        -79.9479   23.1615  -67.5841 C.3       0 UNK        -0.1998 
      2 C         -80.1056   24.0749  -68.7903 C.2       0 UNK         0.4909 
      3 O         -81.2121   24.5409  -69.0657 O.2       0 UNK        -0.5240 
      4 N         -79.0080   24.3389  -69.5106 N.am      1 UNK        -0.4739 
      5 CA        -78.9830   25.1432  -70.7337 C.3       1 UNK         0.0864 
      6 C6        -77.5956   25.8074  -70.9284 C.3       11 UNK        -0.0881 
      7 S7        -77.4867   26.8826  -72.3957 S.3       11 UNK        -0.2682 
      8 C8        -78.3713   28.3772  -71.8534 C.3       11 UNK         0.0289 
      9 C9        -78.4251   29.3679  -73.0025 C.ar      11 UNK        -0.0687 
     10 C10       -79.3752   29.2113  -74.0158 C.ar      11 UNK        -0.0823 
     11 C11       -79.3249   30.0131  -75.1599 C.ar      11 UNK        -0.0830 
     12 C12       -78.3624   31.0238  -75.2519 C.ar      11 UNK        -0.1021 
     13 C13       -77.4246   31.2046  -74.2314 C.ar      11 UNK        -0.0753 
     14 C14       -77.4679   30.3804  -73.1039 C.ar      11 UNK        -0.0933 
     15 C15       -76.3307   32.2516  -74.3702 C.3       11 UNK         0.0166 
     16 S16       -75.1128   31.7500  -75.6301 S.3       11 UNK        -0.2615 
     17 C17       -73.5655   32.4808  -74.9895 C.3       11 UNK        -0.0865 
     18 CA        -72.4711   31.4155  -74.7110 C.3       10 UNK         0.0862 
     19 C         -71.1741   32.0947  -74.1919 C.2       10 UNK         0.5551 
     20 N         -70.2755   32.4816  -75.0868 N.am      10 UNK        -0.7319 
     21 O         -71.0007   32.3161  -72.9948 O.2       10 UNK        -0.5018 
     22 N         -72.9594   30.3540  -73.8168 N.am      10 UNK        -0.4509 
     23 C         -72.3149   29.2146  -73.5350 C.2       10 UNK         0.4899 
     24 O         -71.2314   28.9011  -74.0289 O.2       10 UNK        -0.4839 
     25 CA        -72.9802   28.2534  -72.5364 C.3       9 UNK         0.0222 
     26 CB        -74.2805   28.7904  -71.9061 C.3       9 UNK        -0.1966 
     27 N         -73.2854   27.0036  -73.2250 N.am      9 UNK        -0.4218 
     28 C         -72.7901   25.7987  -72.9213 C.2       9 UNK         0.5020 
     29 O         -71.9832   25.5918  -72.0135 O.2       9 UNK        -0.5274 
     30 CA        -73.2831   24.6147  -73.7658 C.3       8 UNK         0.0270 
     31 CB        -74.6841   24.1733  -73.3104 C.3       8 UNK        -0.1976 
     32 N         -73.3133   24.9433  -75.1931 N.am      8 UNK        -0.4313 
     33 C         -72.4291   24.4991  -76.0983 C.2       8 UNK         0.5041 
     34 O         -71.5019   23.7336  -75.8298 O.2       8 UNK        -0.5577 
     35 CA        -72.5967   24.9694  -77.5562 C.3       7 UNK         0.0284 
     36 CB        -73.2521   23.8705  -78.4086 C.3       7 UNK        -0.1958 
     37 N         -73.3690   26.2099  -77.6688 N.am      7 UNK        -0.4454 
     38 C         -72.8598   27.4233  -77.4062 C.2       7 UNK         0.5089 
     39 O         -71.6683   27.6173  -77.1668 O.2       7 UNK        -0.5125 
     40 CA        -73.8215   28.6280  -77.3868 C.3       6 UNK         0.0408 
     41 CB        -73.6156   29.5109  -78.6272 C.3       6 UNK        -0.1791 
     42 N         -75.2421   28.2895  -77.2680 N.am      6 UNK        -0.4762 
     43 C         -75.8022   27.6624  -76.2244 C.2       6 UNK         0.5007 
     44 O         -75.1553   27.2538  -75.2584 O.2       6 UNK        -0.5032 
     45 CA        -77.3170   27.3776  -76.2858 C.3       5 UNK         0.0783 
     46 C46       -78.0829   28.1806  -77.3777 C.3       11 UNK        -0.0857 
     47 S47       -79.8913   28.1118  -77.1153 S.3       11 UNK        -0.2512 
     48 C48       -80.2490   29.7274  -76.3359 C.3       11 UNK         0.0225 
     49 N         -77.5901   25.9373  -76.3537 N.am      5 UNK        -0.4615 
     50 C         -77.0637   25.0569  -77.2179 C.2       4 UNK         0.5053 
     51 O         -76.2138   25.3392  -78.0637 O.2       4 UNK        -0.5105 
     52 CA        -77.5824   23.6114  -77.1326 C.3       4 UNK         0.0263 
     53 CB        -76.7987   22.8196  -76.0745 C.3       4 UNK        -0.1981 
     54 N         -79.0124   23.5333  -76.8274 N.am      4 UNK        -0.4224 
     55 C         -79.9966   23.9964  -77.6121 C.2       3 UNK         0.4895 
     56 O         -79.8068   24.4644  -78.7355 O.2       3 UNK        -0.5091 
     57 CA        -81.4398   23.9175  -77.0742 C.3       3 UNK         0.0250 
     58 CB        -82.2947   22.9848  -77.9500 C.3       3 UNK        -0.1996 
     59 N         -81.5578   23.4865  -75.6756 N.am      3 UNK        -0.4254 
     60 C         -81.1862   24.2010  -74.6045 C.2       2 UNK         0.5004 
     61 O         -80.6539   25.3106  -74.6816 O.2       2 UNK        -0.5226 
     62 CA        -81.4879   23.5735  -73.2272 C.3       2 UNK         0.0269 
     63 CB        -81.2614   22.0439  -73.1880 C.3       2 UNK        -0.1926 
     64 N         -80.7690   24.2378  -72.1333 N.am      2 UNK        -0.4687 
     65 C         -79.4446   24.2733  -71.9235 C.2       1 UNK         0.5165 
     66 O         -78.6186   23.6375  -72.5828 O.2       1 UNK        -0.5079 
     67 H67       -80.2551   23.6817  -66.6773 H         1 UNK         0.0900 
     68 H68       -78.9172   22.8323  -67.4534 H         1 UNK         0.0900 
     69 H69       -80.5745   22.2775  -67.6991 H         1 UNK         0.0900 
     70 H70       -78.1322   23.9044  -69.2554 H         1 UNK         0.2959 
     71 H71       -79.7060   25.9539  -70.6217 H         1 UNK         0.1079 
     72 H72       -76.8192   25.0454  -71.0154 H         1 UNK         0.0837 
     73 H73       -77.3367   26.3999  -70.0495 H         1 UNK         0.0837 
     74 H74       -79.3834   28.1225  -71.5374 H         1 UNK         0.0685 
     75 H75       -77.8664   28.8109  -70.9888 H         1 UNK         0.0685 
     76 H76       -80.0949   28.4050  -73.9578 H         1 UNK         0.1434 
     77 H77       -78.3063   31.6397  -76.1392 H         1 UNK         0.1329 
     78 H78       -76.7321   30.5001  -72.3215 H         1 UNK         0.1335 
     79 H79       -76.7672   33.2111  -74.6510 H         1 UNK         0.0680 
     80 H80       -75.8395   32.4039  -73.4083 H         1 UNK         0.0680 
     81 H81       -73.7681   33.0657  -74.0907 H         1 UNK         0.1032 
     82 H82       -73.2096   33.1971  -75.7325 H         1 UNK         0.1032 
     83 H83       -72.2281   30.9349  -75.6606 H         1 UNK         0.0461 
     84 H84       -70.4125   32.3134  -76.0713 H         1 UNK         0.3453 
     85 H85       -69.4351   32.9399  -74.7704 H         1 UNK         0.3453 
     86 H86       -73.8463   30.5304  -73.3717 H         1 UNK         0.2984 
     87 H87       -72.2590   28.0882  -71.7337 H         1 UNK         0.0554 
     88 H88       -74.6693   28.0919  -71.1646 H         1 UNK         0.0847 
     89 H89       -75.0582   28.9269  -72.6576 H         1 UNK         0.0847 
     90 H90       -74.1209   29.7405  -71.3945 H         1 UNK         0.0847 
     91 H91       -73.9509   27.0822  -73.9939 H         1 UNK         0.3141 
     92 H92       -72.6015   23.7813  -73.5826 H         1 UNK         0.0743 
     93 H93       -74.9632   23.2266  -73.7710 H         1 UNK         0.0784 
     94 H94       -74.7185   24.0245  -72.2303 H         1 UNK         0.0784 
     95 H95       -75.4479   24.9098  -73.5633 H         1 UNK         0.0784 
     96 H96       -74.0143   25.6158  -75.4860 H         1 UNK         0.3213 
     97 H97       -71.5963   25.1460  -77.9580 H         1 UNK         0.0855 
     98 H98       -74.2349   23.5925  -78.0300 H         1 UNK         0.0814 
     99 H99       -72.6409   22.9669  -78.4119 H         1 UNK         0.0814 
    100 H100      -73.3685   24.1865  -79.4453 H         1 UNK         0.0814 
    101 H101      -74.3613   26.1179  -77.8703 H         1 UNK         0.3105 
    102 H102      -73.5625   29.2161  -76.5062 H         1 UNK         0.0547 
    103 H103      -72.5715   29.8122  -78.7233 H         1 UNK         0.0837 
    104 H104      -73.8902   28.9889  -79.5445 H         1 UNK         0.0837 
    105 H105      -74.2075   30.4243  -78.5661 H         1 UNK         0.0837 
    106 H106      -75.8300   28.5475  -78.0468 H         1 UNK         0.3020 
    107 H107      -77.6814   27.6947  -75.3118 H         1 UNK         0.1245 
    108 H108      -77.8677   27.7828  -78.3710 H         1 UNK         0.0781 
    109 H109      -77.7767   29.2278  -77.3938 H         1 UNK         0.0781 
    110 H110      -81.2848   29.7367  -75.9937 H         1 UNK         0.0836 
    111 H111      -80.1684   30.5100  -77.0919 H         1 UNK         0.0836 
    112 H112      -78.2855   25.6038  -75.6995 H         1 UNK         0.3022 
    113 H113      -77.4187   23.1445  -78.1061 H         1 UNK         0.0747 
    114 H114      -77.0608   21.7617  -76.0968 H         1 UNK         0.0793 
    115 H115      -75.7235   22.8897  -76.2428 H         1 UNK         0.0793 
    116 H116      -76.9981   23.1920  -75.0687 H         1 UNK         0.0793 
    117 H117      -79.2649   23.1659  -75.9219 H         1 UNK         0.3047 
    118 H118      -81.8531   24.9261  -77.1463 H         1 UNK         0.0822 
    119 H119      -83.3381   22.9876  -77.6339 H         1 UNK         0.0807 
    120 H120      -81.9340   21.9560  -77.9151 H         1 UNK         0.0807 
    121 H121      -82.2767   23.3004  -78.9942 H         1 UNK         0.0807 
    122 H122      -81.9842   22.5836  -75.5236 H         1 UNK         0.2946 
    123 H123      -82.5474   23.7569  -73.0408 H         1 UNK         0.1144 
    124 H124      -81.3910   21.6530  -72.1786 H         1 UNK         0.0793 
    125 H125      -80.2602   21.7696  -73.5224 H         1 UNK         0.0793 
    126 H126      -81.9747   21.5162  -73.8216 H         1 UNK         0.0793 
    127 H127      -81.3511   24.7639  -71.4944 H         1 UNK         0.2896 
@<TRIPOS>BOND
     1    1    2 1    
     2    1   67 1    
     3    1   68 1    
     4    1   69 1    
     5    2    3 2    
     6    2    4 am   BACKBONE|DICT|INTERRES
     7    4    5 1    
     8    4   70 1    
     9    5    6 1    
    10    5   65 1    
    11    5   71 1    
    12    6    7 1    
    13    6   72 1    
    14    6   73 1    
    15    7    8 1    
    16    8    9 1    
    17    8   74 1    
    18    8   75 1    
    19    9   10 ar   
    20    9   14 ar   
    21   10   11 ar   
    22   10   76 1    
    23   11   12 ar   
    24   11   48 1    
    25   12   13 ar   
    26   12   77 1    
    27   13   14 ar   
    28   13   15 1    
    29   14   78 1    
    30   15   16 1    
    31   15   79 1    
    32   15   80 1    
    33   16   17 1    
    34   17   18 1    
    35   17   81 1    
    36   17   82 1    
    37   18   19 1    
    38   18   22 1    
    39   18   83 1    
    40   19   20 am   BACKBONE|DICT|INTERRES
    41   19   21 2    
    42   20   84 1    
    43   20   85 1    
    44   22   23 am   BACKBONE|DICT|INTERRES
    45   22   86 1    
    46   23   24 2    
    47   23   25 1    
    48   25   26 1    
    49   25   27 1    
    50   25   87 1    
    51   26   88 1    
    52   26   89 1    
    53   26   90 1    
    54   27   28 am   BACKBONE|DICT|INTERRES
    55   27   91 1    
    56   28   29 2    
    57   28   30 1    
    58   30   31 1    
    59   30   32 1    
    60   30   92 1    
    61   31   93 1    
    62   31   94 1    
    63   31   95 1    
    64   32   33 am   BACKBONE|DICT|INTERRES
    65   32   96 1    
    66   33   34 2    
    67   33   35 1    
    68   35   36 1    
    69   35   37 1    
    70   35   97 1    
    71   36   98 1    
    72   36   99 1    
    73   36  100 1    
    74   37   38 am   BACKBONE|DICT|INTERRES
    75   37  101 1    
    76   38   39 2    
    77   38   40 1    
    78   40   41 1    
    79   40   42 1    
    80   40  102 1    
    81   41  103 1    
    82   41  104 1    
    83   41  105 1    
    84   42   43 am   BACKBONE|DICT|INTERRES
    85   42  106 1    
    86   43   44 2    
    87   43   45 1    
    88   45   46 1    
    89   45   49 1    
    90   45  107 1    
    91   46   47 1    
    92   46  108 1    
    93   46  109 1    
    94   47   48 1    
    95   48  110 1    
    96   48  111 1    
    97   49   50 am   BACKBONE|DICT|INTERRES
    98   49  112 1    
    99   50   51 2    
   100   50   52 1    
   101   52   53 1    
   102   52   54 1    
   103   52  113 1    
   104   53  114 1    
   105   53  115 1    
   106   53  116 1    
   107   54   55 am   BACKBONE|DICT|INTERRES
   108   54  117 1    
   109   55   56 2    
   110   55   57 1    
   111   57   58 1    
   112   57   59 1    
   113   57  118 1    
   114   58  119 1    
   115   58  120 1    
   116   58  121 1    
   117   59   60 am   BACKBONE|DICT|INTERRES
   118   59  122 1    
   119   60   61 2    
   120   60   62 1    
   121   62   63 1    
   122   62   64 1    
   123   62  123 1    
   124   63  124 1    
   125   63  125 1    
   126   63  126 1    
   127   64   65 am   BACKBONE|DICT|INTERRES
   128   64  127 1    
   129   65   66 2    
@<TRIPOS>SUBSTRUCTURE
     1 UNK         1 GROUP             0       ****    0 ROOT    
