@<TRIPOS>MOLECULE
3R135
127   129    1
SMALL
USER_CHARGES


@<TRIPOS>ATOM
      1 CA        -81.8340   22.9384  -71.3109 C.3       0 UNK        -0.1998 
      2 C         -82.0446   24.2485  -72.0541 C.2       0 UNK         0.4909 
      3 O         -82.7253   24.2648  -73.0806 O.2       0 UNK        -0.5240 
      4 N         -81.4553   25.3412  -71.5465 N.am      1 UNK        -0.4739 
      5 CA        -81.4753   26.6924  -72.1229 C.3       1 UNK         0.0864 
      6 C6        -80.6695   27.6685  -71.2286 C.3       11 UNK        -0.0881 
      7 S7        -80.7539   29.4124  -71.7679 S.3       11 UNK        -0.2682 
      8 C8        -79.2240   30.1007  -71.0514 C.3       11 UNK         0.0289 
      9 C9        -77.9674   29.5657  -71.7274 C.ar      11 UNK        -0.0687 
     10 C10       -77.5734   30.0607  -72.9752 C.ar      11 UNK        -0.0823 
     11 C11       -76.4278   29.5631  -73.6036 C.ar      11 UNK        -0.0830 
     12 C12       -75.6740   28.5731  -72.9701 C.ar      11 UNK        -0.1021 
     13 C13       -76.0372   28.0864  -71.7116 C.ar      11 UNK        -0.0753 
     14 C14       -77.1890   28.5875  -71.0979 C.ar      11 UNK        -0.0933 
     15 C15       -75.2148   27.0028  -71.0180 C.3       11 UNK         0.0166 
     16 S16       -73.4115   27.1569  -71.2666 S.3       11 UNK        -0.2615 
     17 C17       -73.0312   28.7016  -70.3689 C.3       11 UNK        -0.0865 
     18 CA        -72.9402   29.9625  -71.2738 C.3       10 UNK         0.0862 
     19 C         -72.5896   31.2143  -70.4150 C.2       10 UNK         0.5551 
     20 N         -71.4321   31.8404  -70.5904 N.am      10 UNK        -0.7319 
     21 O         -73.3844   31.6217  -69.5716 O.2       10 UNK        -0.5018 
     22 N         -72.0785   29.7461  -72.4521 N.am      10 UNK        -0.4509 
     23 C         -72.0392   30.5415  -73.5308 C.2       10 UNK         0.4899 
     24 O         -72.7534   31.5320  -73.6847 O.2       10 UNK        -0.4839 
     25 CA        -71.0211   30.1726  -74.6213 C.3       9 UNK         0.0222 
     26 CB        -69.5979   30.5694  -74.1931 C.3       9 UNK        -0.1966 
     27 N         -71.0579   28.7468  -74.9564 N.am      9 UNK        -0.4218 
     28 C         -71.9416   28.1972  -75.7990 C.2       9 UNK         0.5020 
     29 O         -72.8087   28.8335  -76.4009 O.2       9 UNK        -0.5274 
     30 CA        -71.8448   26.6796  -75.9905 C.3       8 UNK         0.0270 
     31 CB        -72.6232   25.9520  -74.8846 C.3       8 UNK        -0.1976 
     32 N         -72.3904   26.3148  -77.3004 N.am      8 UNK        -0.4313 
     33 C         -71.8158   25.4548  -78.1527 C.2       8 UNK         0.5041 
     34 O         -70.8059   24.8023  -77.8774 O.2       8 UNK        -0.5577 
     35 CA        -72.4452   25.3213  -79.5567 C.3       7 UNK         0.0284 
     36 CB        -71.9193   24.1016  -80.3456 C.3       7 UNK        -0.1958 
     37 N         -73.9117   25.3503  -79.5488 N.am      7 UNK        -0.4454 
     38 C         -74.7471   24.4687  -78.9812 C.2       7 UNK         0.5089 
     39 O         -74.3933   23.4395  -78.4036 O.2       7 UNK        -0.5125 
     40 CA        -76.2444   24.8317  -79.0555 C.3       6 UNK         0.0408 
     41 CB        -77.1144   23.5971  -79.3476 C.3       6 UNK        -0.1791 
     42 N         -76.7169   25.4586  -77.8204 N.am      6 UNK        -0.4762 
     43 C         -76.2100   26.5602  -77.2471 C.2       6 UNK         0.5007 
     44 O         -75.3165   27.2414  -77.7516 O.2       6 UNK        -0.5032 
     45 CA        -76.7774   26.9643  -75.8720 C.3       5 UNK         0.0783 
     46 C46       -77.8186   28.1080  -75.9914 C.3       11 UNK        -0.0857 
     47 S47       -77.1661   29.7831  -76.3124 S.3       11 UNK        -0.2512 
     48 C48       -75.9791   30.0930  -74.9598 C.3       11 UNK         0.0225 
     49 N         -77.3519   25.8466  -75.1142 N.am      5 UNK        -0.4615 
     50 C         -76.7231   24.7448  -74.6825 C.2       4 UNK         0.5053 
     51 O         -75.5311   24.5135  -74.8652 O.2       4 UNK        -0.5105 
     52 CA        -77.5837   23.7106  -73.9383 C.3       4 UNK         0.0263 
     53 CB        -77.6570   24.0367  -72.4370 C.3       4 UNK        -0.1981 
     54 N         -78.9377   23.6488  -74.4926 N.am      4 UNK        -0.4224 
     55 C         -79.2866   22.9148  -75.5592 C.2       3 UNK         0.4895 
     56 O         -78.5223   22.1422  -76.1369 O.2       3 UNK        -0.5091 
     57 CA        -80.7257   23.0694  -76.0842 C.3       3 UNK         0.0250 
     58 CB        -81.6392   21.9876  -75.4865 C.3       3 UNK        -0.1996 
     59 N         -81.2941   24.3942  -75.8199 N.am      3 UNK        -0.4254 
     60 C         -80.9226   25.5098  -76.4672 C.2       2 UNK         0.5004 
     61 O         -80.1015   25.5246  -77.3844 O.2       2 UNK        -0.5226 
     62 CA        -81.5335   26.8416  -75.9883 C.3       2 UNK         0.0269 
     63 CB        -82.8091   27.1608  -76.7835 C.3       2 UNK        -0.1926 
     64 N         -81.8320   26.8929  -74.5520 N.am      2 UNK        -0.4687 
     65 C         -80.9465   26.6667  -73.5712 C.2       1 UNK         0.5165 
     66 O         -79.7677   26.3762  -73.7730 O.2       1 UNK        -0.5079 
     67 H67       -81.2348   22.2570  -71.9141 H         1 UNK         0.0900 
     68 H68       -82.7936   22.4629  -71.1098 H         1 UNK         0.0900 
     69 H69       -81.3244   23.0869  -70.3591 H         1 UNK         0.0900 
     70 H70       -80.9023   25.2432  -70.7073 H         1 UNK         0.2959 
     71 H71       -82.5159   27.0230  -72.1370 H         1 UNK         0.1079 
     72 H72       -81.0419   27.6260  -70.2039 H         1 UNK         0.0837 
     73 H73       -79.6283   27.3483  -71.1826 H         1 UNK         0.0837 
     74 H74       -79.2045   29.8948  -69.9800 H         1 UNK         0.0685 
     75 H75       -79.2494   31.1868  -71.1504 H         1 UNK         0.0685 
     76 H76       -78.1657   30.8222  -73.4639 H         1 UNK         0.1434 
     77 H77       -74.7856   28.1907  -73.4528 H         1 UNK         0.1329 
     78 H78       -77.4861   28.2096  -70.1292 H         1 UNK         0.1335 
     79 H79       -75.5310   26.0353  -71.4074 H         1 UNK         0.0680 
     80 H80       -75.4213   26.9884  -69.9468 H         1 UNK         0.0680 
     81 H81       -73.7808   28.8490  -69.5887 H         1 UNK         0.1032 
     82 H82       -72.0855   28.5493  -69.8453 H         1 UNK         0.1032 
     83 H83       -73.9413   30.1610  -71.6566 H         1 UNK         0.0461 
     84 H84       -70.7743   31.5129  -71.2786 H         1 UNK         0.3453 
     85 H85       -71.2175   32.6497  -70.0294 H         1 UNK         0.3453 
     86 H86       -71.4695   28.9435  -72.4090 H         1 UNK         0.2984 
     87 H87       -71.2677   30.7502  -75.5152 H         1 UNK         0.0554 
     88 H88       -69.5466   31.6315  -73.9489 H         1 UNK         0.0847 
     89 H89       -68.8802   30.3902  -74.9940 H         1 UNK         0.0847 
     90 H90       -69.2631   30.0162  -73.3148 H         1 UNK         0.0847 
     91 H91       -70.3776   28.1509  -74.5061 H         1 UNK         0.3141 
     92 H92       -70.7915   26.3972  -75.9310 H         1 UNK         0.0743 
     93 H93       -72.1632   26.1126  -73.9093 H         1 UNK         0.0784 
     94 H94       -73.6509   26.3092  -74.8210 H         1 UNK         0.0784 
     95 H95       -72.6527   24.8760  -75.0572 H         1 UNK         0.0784 
     96 H96       -73.2118   26.8419  -77.5865 H         1 UNK         0.3213 
     97 H97       -72.1330   26.2138  -80.1013 H         1 UNK         0.0855 
     98 H98       -72.1306   23.1636  -79.8312 H         1 UNK         0.0814 
     99 H99       -70.8385   24.1597  -80.4799 H         1 UNK         0.0814 
    100 H100      -72.3645   24.0481  -81.3389 H         1 UNK         0.0814 
    101 H101      -74.3263   26.1878  -79.9360 H         1 UNK         0.3105 
    102 H102      -76.3926   25.5452  -79.8685 H         1 UNK         0.0547 
    103 H103      -77.0566   22.8620  -78.5434 H         1 UNK         0.0837 
    104 H104      -78.1623   23.8705  -79.4739 H         1 UNK         0.0837 
    105 H105      -76.7942   23.1025  -80.2655 H         1 UNK         0.0837 
    106 H106      -77.4563   24.9779  -77.3271 H         1 UNK         0.3020 
    107 H107      -75.9206   27.3106  -75.2991 H         1 UNK         0.1245 
    108 H108      -78.3978   28.1845  -75.0706 H         1 UNK         0.0781 
    109 H109      -78.5455   27.8756  -76.7711 H         1 UNK         0.0781 
    110 H110      -75.0188   29.6603  -75.2418 H         1 UNK         0.0836 
    111 H111      -75.8062   31.1671  -74.8814 H         1 UNK         0.0836 
    112 H112      -78.3140   25.9775  -74.8113 H         1 UNK         0.3022 
    113 H113      -77.1078   22.7336  -74.0475 H         1 UNK         0.0747 
    114 H114      -76.6668   23.9810  -71.9840 H         1 UNK         0.0793 
    115 H115      -78.2941   23.3285  -71.9071 H         1 UNK         0.0793 
    116 H116      -78.0438   25.0397  -72.2529 H         1 UNK         0.0793 
    117 H117      -79.6027   24.3167  -74.1225 H         1 UNK         0.3047 
    118 H118      -80.6952   22.9236  -77.1664 H         1 UNK         0.0822 
    119 H119      -81.2637   20.9898  -75.7179 H         1 UNK         0.0807 
    120 H120      -82.6499   22.0544  -75.8893 H         1 UNK         0.0807 
    121 H121      -81.7052   22.0660  -74.4015 H         1 UNK         0.0807 
    122 H122      -81.9547   24.4681  -75.0525 H         1 UNK         0.2946 
    123 H123      -80.8028   27.6252  -76.1931 H         1 UNK         0.1144 
    124 H124      -82.6122   27.1533  -77.8567 H         1 UNK         0.0793 
    125 H125      -83.1961   28.1492  -76.5349 H         1 UNK         0.0793 
    126 H126      -83.5975   26.4318  -76.5916 H         1 UNK         0.0793 
    127 H127      -82.7921   27.0815  -74.3011 H         1 UNK         0.2896 
@<TRIPOS>BOND
     1    1    2 1    
     2    1   67 1    
     3    1   68 1    
     4    1   69 1    
     5    2    3 2    
     6    2    4 am   BACKBONE|DICT|INTERRES
     7    4    5 1    
     8    4   70 1    
     9    5    6 1    
    10    5   65 1    
    11    5   71 1    
    12    6    7 1    
    13    6   72 1    
    14    6   73 1    
    15    7    8 1    
    16    8    9 1    
    17    8   74 1    
    18    8   75 1    
    19    9   10 ar   
    20    9   14 ar   
    21   10   11 ar   
    22   10   76 1    
    23   11   12 ar   
    24   11   48 1    
    25   12   13 ar   
    26   12   77 1    
    27   13   14 ar   
    28   13   15 1    
    29   14   78 1    
    30   15   16 1    
    31   15   79 1    
    32   15   80 1    
    33   16   17 1    
    34   17   18 1    
    35   17   81 1    
    36   17   82 1    
    37   18   19 1    
    38   18   22 1    
    39   18   83 1    
    40   19   20 am   BACKBONE|DICT|INTERRES
    41   19   21 2    
    42   20   84 1    
    43   20   85 1    
    44   22   23 am   BACKBONE|DICT|INTERRES
    45   22   86 1    
    46   23   24 2    
    47   23   25 1    
    48   25   26 1    
    49   25   27 1    
    50   25   87 1    
    51   26   88 1    
    52   26   89 1    
    53   26   90 1    
    54   27   28 am   BACKBONE|DICT|INTERRES
    55   27   91 1    
    56   28   29 2    
    57   28   30 1    
    58   30   31 1    
    59   30   32 1    
    60   30   92 1    
    61   31   93 1    
    62   31   94 1    
    63   31   95 1    
    64   32   33 am   BACKBONE|DICT|INTERRES
    65   32   96 1    
    66   33   34 2    
    67   33   35 1    
    68   35   36 1    
    69   35   37 1    
    70   35   97 1    
    71   36   98 1    
    72   36   99 1    
    73   36  100 1    
    74   37   38 am   BACKBONE|DICT|INTERRES
    75   37  101 1    
    76   38   39 2    
    77   38   40 1    
    78   40   41 1    
    79   40   42 1    
    80   40  102 1    
    81   41  103 1    
    82   41  104 1    
    83   41  105 1    
    84   42   43 am   BACKBONE|DICT|INTERRES
    85   42  106 1    
    86   43   44 2    
    87   43   45 1    
    88   45   46 1    
    89   45   49 1    
    90   45  107 1    
    91   46   47 1    
    92   46  108 1    
    93   46  109 1    
    94   47   48 1    
    95   48  110 1    
    96   48  111 1    
    97   49   50 am   BACKBONE|DICT|INTERRES
    98   49  112 1    
    99   50   51 2    
   100   50   52 1    
   101   52   53 1    
   102   52   54 1    
   103   52  113 1    
   104   53  114 1    
   105   53  115 1    
   106   53  116 1    
   107   54   55 am   BACKBONE|DICT|INTERRES
   108   54  117 1    
   109   55   56 2    
   110   55   57 1    
   111   57   58 1    
   112   57   59 1    
   113   57  118 1    
   114   58  119 1    
   115   58  120 1    
   116   58  121 1    
   117   59   60 am   BACKBONE|DICT|INTERRES
   118   59  122 1    
   119   60   61 2    
   120   60   62 1    
   121   62   63 1    
   122   62   64 1    
   123   62  123 1    
   124   63  124 1    
   125   63  125 1    
   126   63  126 1    
   127   64   65 am   BACKBONE|DICT|INTERRES
   128   64  127 1    
   129   65   66 2    
@<TRIPOS>SUBSTRUCTURE
     1 UNK         1 GROUP             0       ****    0 ROOT    
