@<TRIPOS>MOLECULE
3R135
127   129    1
SMALL
USER_CHARGES


@<TRIPOS>ATOM
      1 CA        -76.5756   21.2507  -75.8644 C.3       0 UNK        -0.1998 
      2 C         -76.9853   21.6006  -74.4422 C.2       0 UNK         0.4909 
      3 O         -76.8487   20.7700  -73.5437 O.2       0 UNK        -0.5240 
      4 N         -77.4930   22.8210  -74.2311 N.am      1 UNK        -0.4739 
      5 CA        -77.9535   23.3204  -72.9277 C.3       1 UNK         0.0864 
      6 C6        -77.9728   24.8676  -72.8979 C.3       11 UNK        -0.0881 
      7 S7        -76.3093   25.5928  -73.1054 S.3       11 UNK        -0.2682 
      8 C8        -76.3139   26.8731  -71.8133 C.3       11 UNK         0.0289 
      9 C9        -76.8726   28.1825  -72.3462 C.ar      11 UNK        -0.0687 
     10 C10       -78.2489   28.3569  -72.5144 C.ar      11 UNK        -0.0823 
     11 C11       -78.7543   29.5510  -73.0376 C.ar      11 UNK        -0.0830 
     12 C12       -77.8719   30.5938  -73.3462 C.ar      11 UNK        -0.1021 
     13 C13       -76.4940   30.4446  -73.1524 C.ar      11 UNK        -0.0753 
     14 C14       -76.0040   29.2255  -72.6728 C.ar      11 UNK        -0.0933 
     15 C15       -75.5382   31.5884  -73.4863 C.3       11 UNK         0.0166 
     16 S16       -74.2804   31.8472  -72.1913 S.3       11 UNK        -0.2615 
     17 C17       -73.1473   33.0333  -72.9958 C.3       11 UNK        -0.0865 
     18 CA        -71.6950   32.5142  -73.1894 C.3       10 UNK         0.0862 
     19 C         -70.9555   32.2807  -71.8401 C.2       10 UNK         0.5551 
     20 N         -70.5152   33.3480  -71.1868 N.am      10 UNK        -0.7319 
     21 O         -70.8031   31.1563  -71.3668 O.2       10 UNK        -0.5018 
     22 N         -71.6326   31.3604  -74.1016 N.am      10 UNK        -0.4509 
     23 C         -70.5225   30.9705  -74.7441 C.2       10 UNK         0.4899 
     24 O         -69.4428   31.5595  -74.6588 O.2       10 UNK        -0.4839 
     25 CA        -70.6557   29.7395  -75.6633 C.3       9 UNK         0.0222 
     26 CB        -69.3245   29.3356  -76.3334 C.3       9 UNK        -0.1966 
     27 N         -71.2782   28.5830  -75.0083 N.am      9 UNK        -0.4218 
     28 C         -70.8317   27.9088  -73.9344 C.2       9 UNK         0.5020 
     29 O         -69.7947   28.1881  -73.3320 O.2       9 UNK        -0.5274 
     30 CA        -71.6732   26.7150  -73.4331 C.3       8 UNK         0.0270 
     31 CB        -72.3087   27.0414  -72.0713 C.3       8 UNK        -0.1976 
     32 N         -72.7288   26.3040  -74.3634 N.am      8 UNK        -0.4313 
     33 C         -72.5377   25.5923  -75.4841 C.2       8 UNK         0.5041 
     34 O         -71.4552   25.1049  -75.8102 O.2       8 UNK        -0.5577 
     35 CA        -73.7504   25.4438  -76.4246 C.3       7 UNK         0.0284 
     36 CB        -74.4848   24.1190  -76.1730 C.3       7 UNK        -0.1958 
     37 N         -74.6978   26.5602  -76.3162 N.am      7 UNK        -0.4454 
     38 C         -74.4145   27.8236  -76.6667 C.2       7 UNK         0.5089 
     39 O         -73.3377   28.1594  -77.1589 O.2       7 UNK        -0.5125 
     40 CA        -75.4413   28.9135  -76.3186 C.3       6 UNK         0.0408 
     41 CB        -75.5233   30.0255  -77.3846 C.3       6 UNK        -0.1791 
     42 N         -76.7684   28.4135  -75.9461 N.am      6 UNK        -0.4762 
     43 C         -77.6726   27.8302  -76.7442 C.2       6 UNK         0.5007 
     44 O         -77.5104   27.6323  -77.9507 O.2       6 UNK        -0.5032 
     45 CA        -78.9907   27.4298  -76.0547 C.3       5 UNK         0.0783 
     46 C46       -79.9183   28.6599  -75.8722 C.3       11 UNK        -0.0857 
     47 S47       -80.9615   28.4673  -74.3903 S.3       11 UNK        -0.2512 
     48 C48       -80.2546   29.7200  -73.2611 C.3       11 UNK         0.0225 
     49 N         -79.6681   26.3458  -76.7707 N.am      5 UNK        -0.4615 
     50 C         -79.2046   25.0993  -76.9099 C.2       4 UNK         0.5053 
     51 O         -78.2083   24.6652  -76.3260 O.2       4 UNK        -0.5105 
     52 CA        -80.0159   24.1808  -77.8414 C.3       4 UNK         0.0263 
     53 CB        -79.2148   22.9424  -78.2835 C.3       4 UNK        -0.1981 
     54 N         -81.2483   23.7353  -77.1954 N.am      4 UNK        -0.4224 
     55 C         -82.3569   24.4678  -77.0127 C.2       3 UNK         0.4895 
     56 O         -82.5056   25.6068  -77.4575 O.2       3 UNK        -0.5091 
     57 CA        -83.4827   23.8200  -76.1806 C.3       3 UNK         0.0250 
     58 CB        -84.5325   23.1765  -77.1008 C.3       3 UNK        -0.1996 
     59 N         -82.9732   22.8120  -75.2418 N.am      3 UNK        -0.4254 
     60 C         -82.2480   23.1051  -74.1526 C.2       2 UNK         0.5004 
     61 O         -82.0892   24.2538  -73.7363 O.2       2 UNK        -0.5226 
     62 CA        -81.5153   21.9495  -73.4485 C.3       2 UNK         0.0269 
     63 CB        -81.7745   20.5571  -74.0618 C.3       2 UNK        -0.1926 
     64 N         -80.0853   22.2440  -73.5279 N.am      2 UNK        -0.4687 
     65 C         -79.3494   22.7792  -72.5455 C.2       1 UNK         0.5165 
     66 O         -79.7399   22.8870  -71.3817 O.2       1 UNK        -0.5079 
     67 H67       -75.5146   21.0055  -75.8993 H         1 UNK         0.0900 
     68 H68       -77.1381   20.3864  -76.2162 H         1 UNK         0.0900 
     69 H69       -76.7550   22.0753  -76.5531 H         1 UNK         0.0900 
     70 H70       -77.5934   23.4750  -75.0057 H         1 UNK         0.2959 
     71 H71       -77.2608   22.9727  -72.1578 H         1 UNK         0.1079 
     72 H72       -78.3961   25.2148  -71.9539 H         1 UNK         0.0837 
     73 H73       -78.6298   25.2542  -73.6770 H         1 UNK         0.0837 
     74 H74       -76.8790   26.5464  -70.9396 H         1 UNK         0.0685 
     75 H75       -75.2905   27.0145  -71.4646 H         1 UNK         0.0685 
     76 H76       -78.9296   27.5564  -72.2601 H         1 UNK         0.1434 
     77 H77       -78.2582   31.5255  -73.7370 H         1 UNK         0.1329 
     78 H78       -74.9400   29.0951  -72.5392 H         1 UNK         0.1335 
     79 H79       -76.0905   32.5201  -73.6195 H         1 UNK         0.0680 
     80 H80       -75.0441   31.3843  -74.4352 H         1 UNK         0.0680 
     81 H81       -73.5563   33.3311  -73.9624 H         1 UNK         0.1032 
     82 H82       -73.1411   33.9471  -72.3988 H         1 UNK         0.1032 
     83 H83       -71.1542   33.3205  -73.6903 H         1 UNK         0.0461 
     84 H84       -70.6358   34.2769  -71.5597 H         1 UNK         0.3453 
     85 H85       -70.0440   33.2209  -70.3047 H         1 UNK         0.3453 
     86 H86       -72.4683   30.8012  -74.1721 H         1 UNK         0.2984 
     87 H87       -71.3388   30.0355  -76.4609 H         1 UNK         0.0554 
     88 H88       -68.9174   30.1589  -76.9217 H         1 UNK         0.0847 
     89 H89       -69.4620   28.4925  -77.0105 H         1 UNK         0.0847 
     90 H90       -68.5678   29.0564  -75.5995 H         1 UNK         0.0847 
     91 H91       -72.1104   28.2396  -75.4730 H         1 UNK         0.3141 
     92 H92       -70.9909   25.8733  -73.2955 H         1 UNK         0.0743 
     93 H93       -72.9683   27.9067  -72.1302 H         1 UNK         0.0784 
     94 H94       -72.8840   26.1986  -71.6874 H         1 UNK         0.0784 
     95 H95       -71.5422   27.2721  -71.3301 H         1 UNK         0.0784 
     96 H96       -73.6657   26.6204  -74.1597 H         1 UNK         0.3213 
     97 H97       -73.3695   25.4309  -77.4483 H         1 UNK         0.0855 
     98 H98       -75.3296   24.0037  -76.8521 H         1 UNK         0.0814 
     99 H99       -74.8602   24.0484  -75.1524 H         1 UNK         0.0814 
    100 H100      -73.8199   23.2693  -76.3332 H         1 UNK         0.0814 
    101 H101      -75.6034   26.3597  -75.9150 H         1 UNK         0.3105 
    102 H102      -75.0433   29.3683  -75.4145 H         1 UNK         0.0547 
    103 H103      -74.5544   30.5063  -77.5248 H         1 UNK         0.0837 
    104 H104      -75.8322   29.6376  -78.3553 H         1 UNK         0.0837 
    105 H105      -76.2283   30.8036  -77.0924 H         1 UNK         0.0837 
    106 H106      -77.0085   28.5436  -74.9705 H         1 UNK         0.3020 
    107 H107      -78.7130   27.0421  -75.0739 H         1 UNK         0.1245 
    108 H108      -80.5600   28.8002  -76.7439 H         1 UNK         0.0781 
    109 H109      -79.3563   29.5912  -75.7776 H         1 UNK         0.0781 
    110 H110      -80.7652   29.6551  -72.2994 H         1 UNK         0.0836 
    111 H111      -80.4778   30.7118  -73.6577 H         1 UNK         0.0836 
    112 H112      -80.5360   26.5827  -77.2346 H         1 UNK         0.3022 
    113 H113      -80.2690   24.7528  -78.7368 H         1 UNK         0.0747 
    114 H114      -79.7584   22.3678  -79.0336 H         1 UNK         0.0793 
    115 H115      -78.2608   23.2312  -78.7271 H         1 UNK         0.0793 
    116 H116      -78.9998   22.2782  -77.4465 H         1 UNK         0.0793 
    117 H117      -81.2293   22.8112  -76.7935 H         1 UNK         0.3047 
    118 H118      -83.9678   24.6138  -75.6080 H         1 UNK         0.0822 
    119 H119      -85.3658   22.7690  -76.5281 H         1 UNK         0.0807 
    120 H120      -84.1081   22.3692  -77.6992 H         1 UNK         0.0807 
    121 H121      -84.9461   23.9117  -77.7927 H         1 UNK         0.0807 
    122 H122      -83.0870   21.8431  -75.5041 H         1 UNK         0.2946 
    123 H123      -81.8535   21.9377  -72.4097 H         1 UNK         0.1144 
    124 H124      -81.2379   19.7869  -73.5071 H         1 UNK         0.0793 
    125 H125      -81.4501   20.4923  -75.1012 H         1 UNK         0.0793 
    126 H126      -82.8326   20.2949  -74.0188 H         1 UNK         0.0793 
    127 H127      -79.6660   22.2156  -74.4454 H         1 UNK         0.2896 
@<TRIPOS>BOND
     1    1    2 1    
     2    1   67 1    
     3    1   68 1    
     4    1   69 1    
     5    2    3 2    
     6    2    4 am   BACKBONE|DICT|INTERRES
     7    4    5 1    
     8    4   70 1    
     9    5    6 1    
    10    5   65 1    
    11    5   71 1    
    12    6    7 1    
    13    6   72 1    
    14    6   73 1    
    15    7    8 1    
    16    8    9 1    
    17    8   74 1    
    18    8   75 1    
    19    9   10 ar   
    20    9   14 ar   
    21   10   11 ar   
    22   10   76 1    
    23   11   12 ar   
    24   11   48 1    
    25   12   13 ar   
    26   12   77 1    
    27   13   14 ar   
    28   13   15 1    
    29   14   78 1    
    30   15   16 1    
    31   15   79 1    
    32   15   80 1    
    33   16   17 1    
    34   17   18 1    
    35   17   81 1    
    36   17   82 1    
    37   18   19 1    
    38   18   22 1    
    39   18   83 1    
    40   19   20 am   BACKBONE|DICT|INTERRES
    41   19   21 2    
    42   20   84 1    
    43   20   85 1    
    44   22   23 am   BACKBONE|DICT|INTERRES
    45   22   86 1    
    46   23   24 2    
    47   23   25 1    
    48   25   26 1    
    49   25   27 1    
    50   25   87 1    
    51   26   88 1    
    52   26   89 1    
    53   26   90 1    
    54   27   28 am   BACKBONE|DICT|INTERRES
    55   27   91 1    
    56   28   29 2    
    57   28   30 1    
    58   30   31 1    
    59   30   32 1    
    60   30   92 1    
    61   31   93 1    
    62   31   94 1    
    63   31   95 1    
    64   32   33 am   BACKBONE|DICT|INTERRES
    65   32   96 1    
    66   33   34 2    
    67   33   35 1    
    68   35   36 1    
    69   35   37 1    
    70   35   97 1    
    71   36   98 1    
    72   36   99 1    
    73   36  100 1    
    74   37   38 am   BACKBONE|DICT|INTERRES
    75   37  101 1    
    76   38   39 2    
    77   38   40 1    
    78   40   41 1    
    79   40   42 1    
    80   40  102 1    
    81   41  103 1    
    82   41  104 1    
    83   41  105 1    
    84   42   43 am   BACKBONE|DICT|INTERRES
    85   42  106 1    
    86   43   44 2    
    87   43   45 1    
    88   45   46 1    
    89   45   49 1    
    90   45  107 1    
    91   46   47 1    
    92   46  108 1    
    93   46  109 1    
    94   47   48 1    
    95   48  110 1    
    96   48  111 1    
    97   49   50 am   BACKBONE|DICT|INTERRES
    98   49  112 1    
    99   50   51 2    
   100   50   52 1    
   101   52   53 1    
   102   52   54 1    
   103   52  113 1    
   104   53  114 1    
   105   53  115 1    
   106   53  116 1    
   107   54   55 am   BACKBONE|DICT|INTERRES
   108   54  117 1    
   109   55   56 2    
   110   55   57 1    
   111   57   58 1    
   112   57   59 1    
   113   57  118 1    
   114   58  119 1    
   115   58  120 1    
   116   58  121 1    
   117   59   60 am   BACKBONE|DICT|INTERRES
   118   59  122 1    
   119   60   61 2    
   120   60   62 1    
   121   62   63 1    
   122   62   64 1    
   123   62  123 1    
   124   63  124 1    
   125   63  125 1    
   126   63  126 1    
   127   64   65 am   BACKBONE|DICT|INTERRES
   128   64  127 1    
   129   65   66 2    
@<TRIPOS>SUBSTRUCTURE
     1 UNK         1 GROUP             0       ****    0 ROOT    
