@<TRIPOS>MOLECULE
3R135
127   129    1
SMALL
USER_CHARGES


@<TRIPOS>ATOM
      1 CA        -76.9938   27.1745  -75.4275 C.3       0 UNK        -0.1998 
      2 C         -78.2838   26.5687  -74.8990 C.2       0 UNK         0.4909 
      3 O         -78.6818   25.4906  -75.3484 O.2       0 UNK        -0.5240 
      4 N         -78.9286   27.2273  -73.9277 N.am      1 UNK        -0.4739 
      5 CA        -80.2522   26.8544  -73.4164 C.3       1 UNK         0.0864 
      6 C6        -80.6110   27.6046  -72.1101 C.3       11 UNK        -0.0881 
      7 S7        -79.8797   26.7825  -70.6544 S.3       11 UNK        -0.2682 
      8 C8        -78.6515   27.9943  -70.0694 C.3       11 UNK         0.0289 
      9 C9        -77.4254   28.0664  -70.9690 C.ar      11 UNK        -0.0687 
     10 C10       -76.6305   26.9330  -71.1703 C.ar      11 UNK        -0.0823 
     11 C11       -75.5028   26.9814  -72.0023 C.ar      11 UNK        -0.0830 
     12 C12       -75.1535   28.2048  -72.5849 C.ar      11 UNK        -0.1021 
     13 C13       -75.9247   29.3515  -72.3730 C.ar      11 UNK        -0.0753 
     14 C14       -77.0685   29.2728  -71.5756 C.ar      11 UNK        -0.0933 
     15 C15       -75.5173   30.6795  -72.9912 C.3       11 UNK         0.0166 
     16 S16       -74.5203   31.6538  -71.8244 S.3       11 UNK        -0.2615 
     17 C17       -74.0828   33.1067  -72.8454 C.3       11 UNK        -0.0865 
     18 CA        -72.5617   33.2353  -73.1279 C.3       10 UNK         0.0862 
     19 C         -71.7628   33.6820  -71.8662 C.2       10 UNK         0.5551 
     20 N         -70.8112   32.9015  -71.3680 N.am      10 UNK        -0.7319 
     21 O         -72.0041   34.7659  -71.3403 O.2       10 UNK        -0.5018 
     22 N         -72.0408   32.0443  -73.8179 N.am      10 UNK        -0.4509 
     23 C         -70.9192   32.0012  -74.5489 C.2       10 UNK         0.4899 
     24 O         -70.1891   32.9725  -74.7467 O.2       10 UNK        -0.4839 
     25 CA        -70.5462   30.6430  -75.1693 C.3       9 UNK         0.0222 
     26 CB        -69.5875   29.8753  -74.2450 C.3       9 UNK        -0.1966 
     27 N         -71.7083   29.8001  -75.4625 N.am      9 UNK        -0.4218 
     28 C         -72.6133   30.0288  -76.4214 C.2       9 UNK         0.5020 
     29 O         -72.5482   30.9811  -77.2012 O.2       9 UNK        -0.5274 
     30 CA        -73.7812   29.0229  -76.5233 C.3       8 UNK         0.0270 
     31 CB        -74.7570   29.3712  -77.6634 C.3       8 UNK        -0.1976 
     32 N         -73.3510   27.6305  -76.6827 N.am      8 UNK        -0.4313 
     33 C         -72.7562   26.8607  -75.7637 C.2       8 UNK         0.5041 
     34 O         -72.4567   27.2589  -74.6362 O.2       8 UNK        -0.5577 
     35 CA        -72.4802   25.4008  -76.1678 C.3       7 UNK         0.0284 
     36 CB        -71.6044   24.6642  -75.1373 C.3       7 UNK        -0.1958 
     37 N         -73.7226   24.6485  -76.3480 N.am      7 UNK        -0.4454 
     38 C         -74.5844   24.7652  -77.3637 C.2       7 UNK         0.5089 
     39 O         -74.4080   25.5294  -78.3138 O.2       7 UNK        -0.5125 
     40 CA        -75.8678   23.9156  -77.3167 C.3       6 UNK         0.0408 
     41 CB        -75.6629   22.5745  -78.0446 C.3       6 UNK        -0.1791 
     42 N         -76.4520   23.7088  -75.9823 N.am      6 UNK        -0.4762 
     43 C         -75.9678   23.0299  -74.9282 C.2       6 UNK         0.5007 
     44 O         -74.8433   22.5300  -74.8941 O.2       6 UNK        -0.5032 
     45 CA        -76.9163   22.8535  -73.7249 C.3       5 UNK         0.0783 
     46 C46       -76.8337   24.0182  -72.7102 C.3       11 UNK        -0.0857 
     47 S47       -75.2752   24.1284  -71.7696 S.3       11 UNK        -0.2512 
     48 C48       -74.6279   25.7570  -72.3060 C.3       11 UNK         0.0225 
     49 N         -78.2922   22.6859  -74.2023 N.am      5 UNK        -0.4615 
     50 C         -78.8265   21.5170  -74.5783 C.2       4 UNK         0.5053 
     51 O         -78.2460   20.4354  -74.4847 O.2       4 UNK        -0.5105 
     52 CA        -80.2509   21.5599  -75.1535 C.3       4 UNK         0.0263 
     53 CB        -81.2897   21.4868  -74.0225 C.3       4 UNK        -0.1981 
     54 N         -80.4975   22.7587  -75.9564 N.am      4 UNK        -0.4224 
     55 C         -80.0831   22.9432  -77.2177 C.2       3 UNK         0.4895 
     56 O         -79.4385   22.1034  -77.8468 O.2       3 UNK        -0.5091 
     57 CA        -80.4207   24.2918  -77.8909 C.3       3 UNK         0.0250 
     58 CB        -80.9536   24.1100  -79.3276 C.3       3 UNK        -0.1996 
     59 N         -81.2972   25.1664  -77.0945 N.am      3 UNK        -0.4254 
     60 C         -82.5915   24.9948  -76.7779 C.2       2 UNK         0.5004 
     61 O         -83.2823   24.0651  -77.1957 O.2       2 UNK        -0.5226 
     62 CA        -83.1777   25.9902  -75.7539 C.3       2 UNK         0.0269 
     63 CB        -84.5617   25.5596  -75.2313 C.3       2 UNK        -0.1926 
     64 N         -82.2627   26.1311  -74.6154 N.am      2 UNK        -0.4687 
     65 C         -81.3132   27.0695  -74.5154 C.2       1 UNK         0.5165 
     66 O         -81.2241   28.0323  -75.2811 O.2       1 UNK        -0.5079 
     67 H67       -76.1341   26.6153  -75.0614 H         1 UNK         0.0900 
     68 H68       -76.8818   28.2152  -75.1244 H         1 UNK         0.0900 
     69 H69       -76.9868   27.1349  -76.5158 H         1 UNK         0.0900 
     70 H70       -78.5439   28.0880  -73.5665 H         1 UNK         0.2959 
     71 H71       -80.2254   25.7831  -73.2033 H         1 UNK         0.1079 
     72 H72       -80.3087   28.6523  -72.1582 H         1 UNK         0.0837 
     73 H73       -81.6907   27.6133  -71.9459 H         1 UNK         0.0837 
     74 H74       -79.1283   28.9706  -69.9688 H         1 UNK         0.0685 
     75 H75       -78.3301   27.7072  -69.0674 H         1 UNK         0.0685 
     76 H76       -76.9147   26.0128  -70.6814 H         1 UNK         0.1434 
     77 H77       -74.2704   28.2674  -73.2037 H         1 UNK         0.1329 
     78 H78       -77.6652   30.1594  -71.4089 H         1 UNK         0.1335 
     79 H79       -74.9472   30.5167  -73.9051 H         1 UNK         0.0680 
     80 H80       -76.4043   31.2481  -73.2753 H         1 UNK         0.0680 
     81 H81       -74.4586   34.0037  -72.3491 H         1 UNK         0.1032 
     82 H82       -74.6217   33.0610  -73.7930 H         1 UNK         0.1032 
     83 H83       -72.4535   34.0650  -73.8293 H         1 UNK         0.0461 
     84 H84       -70.2977   33.2036  -70.5553 H         1 UNK         0.3453 
     85 H85       -70.6097   32.0117  -71.7933 H         1 UNK         0.3453 
     86 H86       -72.5600   31.1914  -73.6755 H         1 UNK         0.2984 
     87 H87       -70.0276   30.8411  -76.1096 H         1 UNK         0.0554 
     88 H88       -69.2452   28.9504  -74.7097 H         1 UNK         0.0847 
     89 H89       -70.0591   29.6172  -73.2959 H         1 UNK         0.0847 
     90 H90       -68.7011   30.4700  -74.0193 H         1 UNK         0.0847 
     91 H91       -71.8289   28.9502  -74.9115 H         1 UNK         0.3141 
     92 H92       -74.3368   29.0847  -75.5876 H         1 UNK         0.0743 
     93 H93       -74.2652   29.3391  -78.6366 H         1 UNK         0.0784 
     94 H94       -75.6003   28.6827  -77.6958 H         1 UNK         0.0784 
     95 H95       -75.1662   30.3744  -77.5366 H         1 UNK         0.0784 
     96 H96       -73.5971   27.1794  -77.5594 H         1 UNK         0.3213 
     97 H97       -71.9404   25.4181  -77.1171 H         1 UNK         0.0855 
     98 H98       -70.6607   25.1884  -74.9802 H         1 UNK         0.0814 
     99 H99       -71.3623   23.6552  -75.4715 H         1 UNK         0.0814 
    100 H100      -72.0995   24.5857  -74.1683 H         1 UNK         0.0814 
    101 H101      -73.9526   23.9580  -75.6371 H         1 UNK         0.3105 
    102 H102      -76.6228   24.4736  -77.8730 H         1 UNK         0.0547 
    103 H103      -75.3273   22.7352  -79.0700 H         1 UNK         0.0837 
    104 H104      -74.9143   21.9527  -77.5528 H         1 UNK         0.0837 
    105 H105      -76.5915   22.0057  -78.0937 H         1 UNK         0.0837 
    106 H106      -77.3627   24.1421  -75.8590 H         1 UNK         0.3020 
    107 H107      -76.6116   21.9404  -73.2073 H         1 UNK         0.1245 
    108 H108      -77.6333   23.9143  -71.9748 H         1 UNK         0.0781 
    109 H109      -77.0162   24.9669  -73.2027 H         1 UNK         0.0781 
    110 H110      -74.4454   25.7075  -73.3801 H         1 UNK         0.0836 
    111 H111      -73.6530   25.9072  -71.8403 H         1 UNK         0.0836 
    112 H112      -78.8168   23.5358  -74.3640 H         1 UNK         0.3022 
    113 H113      -80.3798   20.6826  -75.7914 H         1 UNK         0.0747 
    114 H114      -82.3051   21.4572  -74.4186 H         1 UNK         0.0793 
    115 H115      -81.1507   20.5848  -73.4246 H         1 UNK         0.0793 
    116 H116      -81.2170   22.3396  -73.3464 H         1 UNK         0.0793 
    117 H117      -81.0244   23.5020  -75.5258 H         1 UNK         0.3047 
    118 H118      -79.4704   24.8229  -77.9640 H         1 UNK         0.0822 
    119 H119      -81.1702   25.0702  -79.7956 H         1 UNK         0.0807 
    120 H120      -81.8637   23.5103  -79.3520 H         1 UNK         0.0807 
    121 H121      -80.2189   23.6042  -79.9552 H         1 UNK         0.0807 
    122 H122      -80.8207   25.9497  -76.6657 H         1 UNK         0.2946 
    123 H123      -83.2973   26.9469  -76.2683 H         1 UNK         0.1144 
    124 H124      -84.9579   26.2832  -74.5188 H         1 UNK         0.0793 
    125 H125      -84.5245   24.5879  -74.7373 H         1 UNK         0.0793 
    126 H126      -85.2820   25.4843  -76.0472 H         1 UNK         0.0793 
    127 H127      -82.2862   25.3857  -73.9336 H         1 UNK         0.2896 
@<TRIPOS>BOND
     1    1    2 1    
     2    1   67 1    
     3    1   68 1    
     4    1   69 1    
     5    2    3 2    
     6    2    4 am   BACKBONE|DICT|INTERRES
     7    4    5 1    
     8    4   70 1    
     9    5    6 1    
    10    5   65 1    
    11    5   71 1    
    12    6    7 1    
    13    6   72 1    
    14    6   73 1    
    15    7    8 1    
    16    8    9 1    
    17    8   74 1    
    18    8   75 1    
    19    9   10 ar   
    20    9   14 ar   
    21   10   11 ar   
    22   10   76 1    
    23   11   12 ar   
    24   11   48 1    
    25   12   13 ar   
    26   12   77 1    
    27   13   14 ar   
    28   13   15 1    
    29   14   78 1    
    30   15   16 1    
    31   15   79 1    
    32   15   80 1    
    33   16   17 1    
    34   17   18 1    
    35   17   81 1    
    36   17   82 1    
    37   18   19 1    
    38   18   22 1    
    39   18   83 1    
    40   19   20 am   BACKBONE|DICT|INTERRES
    41   19   21 2    
    42   20   84 1    
    43   20   85 1    
    44   22   23 am   BACKBONE|DICT|INTERRES
    45   22   86 1    
    46   23   24 2    
    47   23   25 1    
    48   25   26 1    
    49   25   27 1    
    50   25   87 1    
    51   26   88 1    
    52   26   89 1    
    53   26   90 1    
    54   27   28 am   BACKBONE|DICT|INTERRES
    55   27   91 1    
    56   28   29 2    
    57   28   30 1    
    58   30   31 1    
    59   30   32 1    
    60   30   92 1    
    61   31   93 1    
    62   31   94 1    
    63   31   95 1    
    64   32   33 am   BACKBONE|DICT|INTERRES
    65   32   96 1    
    66   33   34 2    
    67   33   35 1    
    68   35   36 1    
    69   35   37 1    
    70   35   97 1    
    71   36   98 1    
    72   36   99 1    
    73   36  100 1    
    74   37   38 am   BACKBONE|DICT|INTERRES
    75   37  101 1    
    76   38   39 2    
    77   38   40 1    
    78   40   41 1    
    79   40   42 1    
    80   40  102 1    
    81   41  103 1    
    82   41  104 1    
    83   41  105 1    
    84   42   43 am   BACKBONE|DICT|INTERRES
    85   42  106 1    
    86   43   44 2    
    87   43   45 1    
    88   45   46 1    
    89   45   49 1    
    90   45  107 1    
    91   46   47 1    
    92   46  108 1    
    93   46  109 1    
    94   47   48 1    
    95   48  110 1    
    96   48  111 1    
    97   49   50 am   BACKBONE|DICT|INTERRES
    98   49  112 1    
    99   50   51 2    
   100   50   52 1    
   101   52   53 1    
   102   52   54 1    
   103   52  113 1    
   104   53  114 1    
   105   53  115 1    
   106   53  116 1    
   107   54   55 am   BACKBONE|DICT|INTERRES
   108   54  117 1    
   109   55   56 2    
   110   55   57 1    
   111   57   58 1    
   112   57   59 1    
   113   57  118 1    
   114   58  119 1    
   115   58  120 1    
   116   58  121 1    
   117   59   60 am   BACKBONE|DICT|INTERRES
   118   59  122 1    
   119   60   61 2    
   120   60   62 1    
   121   62   63 1    
   122   62   64 1    
   123   62  123 1    
   124   63  124 1    
   125   63  125 1    
   126   63  126 1    
   127   64   65 am   BACKBONE|DICT|INTERRES
   128   64  127 1    
   129   65   66 2    
@<TRIPOS>SUBSTRUCTURE
     1 UNK         1 GROUP             0       ****    0 ROOT    
