@<TRIPOS>MOLECULE
3R135
127   129    1
SMALL
USER_CHARGES


@<TRIPOS>ATOM
      1 CA        -80.5219   21.2937  -72.5014 C.3       0 UNK        -0.1998 
      2 C         -81.1309   22.6820  -72.6204 C.2       0 UNK         0.4909 
      3 O         -82.0456   22.8800  -73.4210 O.2       0 UNK        -0.5240 
      4 N         -80.6228   23.6476  -71.8410 N.am      1 UNK        -0.4739 
      5 CA        -81.0522   25.0515  -71.8288 C.3       1 UNK         0.0864 
      6 C6        -80.2996   25.8550  -70.7401 C.3       11 UNK        -0.0881 
      7 S7        -81.1421   27.4210  -70.3402 S.3       11 UNK        -0.2682 
      8 C8        -79.7457   28.4532  -69.7828 C.3       11 UNK         0.0289 
      9 C9        -78.7924   28.8650  -70.9021 C.ar      11 UNK        -0.0687 
     10 C10       -79.2787   29.4192  -72.0921 C.ar      11 UNK        -0.0823 
     11 C11       -78.4009   29.8601  -73.0878 C.ar      11 UNK        -0.0830 
     12 C12       -77.0223   29.7549  -72.8767 C.ar      11 UNK        -0.1021 
     13 C13       -76.5215   29.1961  -71.6994 C.ar      11 UNK        -0.0753 
     14 C14       -77.4102   28.7491  -70.7169 C.ar      11 UNK        -0.0933 
     15 C15       -75.0191   29.1028  -71.4904 C.3       11 UNK         0.0166 
     16 S16       -74.3324   30.7252  -71.0419 S.3       11 UNK        -0.2615 
     17 C17       -72.5546   30.3465  -70.9010 C.3       11 UNK        -0.0865 
     18 CA        -71.7282   30.9172  -72.0831 C.3       10 UNK         0.0862 
     19 C         -70.2098   30.8372  -71.7622 C.2       10 UNK         0.5551 
     20 N         -69.5810   31.9583  -71.4370 N.am      10 UNK        -0.7319 
     21 O         -69.6158   29.7615  -71.7534 O.2       10 UNK        -0.5018 
     22 N         -72.0712   30.2520  -73.3500 N.am      10 UNK        -0.4509 
     23 C         -71.6072   30.5927  -74.5604 C.2       10 UNK         0.4899 
     24 O         -70.9068   31.5859  -74.7631 O.2       10 UNK        -0.4839 
     25 CA        -72.0126   29.6958  -75.7529 C.3       9 UNK         0.0222 
     26 CB        -70.9484   29.6837  -76.8706 C.3       9 UNK        -0.1966 
     27 N         -72.3913   28.3210  -75.3949 N.am      9 UNK        -0.4218 
     28 C         -71.6368   27.4044  -74.7667 C.2       9 UNK         0.5020 
     29 O         -70.4840   27.5984  -74.3817 O.2       9 UNK        -0.5274 
     30 CA        -72.2868   26.0350  -74.5187 C.3       8 UNK         0.0270 
     31 CB        -73.3831   26.1286  -73.4427 C.3       8 UNK        -0.1976 
     32 N         -72.8470   25.4489  -75.7349 N.am      8 UNK        -0.4313 
     33 C         -72.1381   25.0174  -76.7869 C.2       8 UNK         0.5041 
     34 O         -70.9089   25.0525  -76.8539 O.2       8 UNK        -0.5577 
     35 CA        -72.9393   24.4394  -77.9626 C.3       7 UNK         0.0284 
     36 CB        -73.3447   22.9821  -77.6839 C.3       7 UNK        -0.1958 
     37 N         -74.1347   25.2385  -78.2340 N.am      7 UNK        -0.4454 
     38 C         -74.1534   26.3200  -79.0237 C.2       7 UNK         0.5089 
     39 O         -73.1774   26.7220  -79.6581 O.2       7 UNK        -0.5125 
     40 CA        -75.4847   27.0850  -79.1402 C.3       6 UNK         0.0408 
     41 CB        -76.2666   26.6102  -80.3751 C.3       6 UNK        -0.1791 
     42 N         -76.3458   26.9823  -77.9588 N.am      6 UNK        -0.4762 
     43 C         -76.0619   27.5088  -76.7589 C.2       6 UNK         0.5007 
     44 O         -75.0043   28.0793  -76.4879 O.2       6 UNK        -0.5032 
     45 CA        -77.1260   27.3227  -75.6586 C.3       5 UNK         0.0783 
     46 C46       -78.3821   28.1946  -75.9206 C.3       11 UNK        -0.0857 
     47 S47       -78.0691   29.9917  -75.8780 S.3       11 UNK        -0.2512 
     48 C48       -78.9553   30.4908  -74.3622 C.3       11 UNK         0.0225 
     49 N         -77.5194   25.9275  -75.4266 N.am      5 UNK        -0.4615 
     50 C         -76.7564   24.8251  -75.4124 C.2       4 UNK         0.5053 
     51 O         -75.5558   24.8061  -75.6753 O.2       4 UNK        -0.5105 
     52 CA        -77.4512   23.5068  -75.0434 C.3       4 UNK         0.0263 
     53 CB        -77.3312   23.2498  -73.5329 C.3       4 UNK        -0.1981 
     54 N         -78.8627   23.4975  -75.4354 N.am      4 UNK        -0.4224 
     55 C         -79.3070   23.1747  -76.6589 C.2       3 UNK         0.4895 
     56 O         -78.5737   22.8021  -77.5751 O.2       3 UNK        -0.5091 
     57 CA        -80.8217   23.2803  -76.9120 C.3       3 UNK         0.0250 
     58 CB        -81.4990   21.9162  -76.7034 C.3       3 UNK        -0.1996 
     59 N         -81.4699   24.2852  -76.0644 N.am      3 UNK        -0.4254 
     60 C         -81.4242   25.6050  -76.3044 C.2       2 UNK         0.5004 
     61 O         -80.8903   26.0985  -77.2975 O.2       2 UNK        -0.5226 
     62 CA        -82.0485   26.5425  -75.2516 C.3       2 UNK         0.0269 
     63 CB        -83.5032   26.8714  -75.6225 C.3       2 UNK        -0.1926 
     64 N         -82.0047   26.0239  -73.8796 N.am      2 UNK        -0.4687 
     65 C         -80.8859   25.6852  -73.2243 C.2       1 UNK         0.5165 
     66 O         -79.7582   25.7884  -73.7073 O.2       1 UNK        -0.5079 
     67 H67       -79.7516   21.2502  -71.7317 H         1 UNK         0.0900 
     68 H68       -80.0727   20.9989  -73.4494 H         1 UNK         0.0900 
     69 H69       -81.2938   20.5671  -72.2497 H         1 UNK         0.0900 
     70 H70       -79.8633   23.4216  -71.2149 H         1 UNK         0.2959 
     71 H71       -82.1144   25.0456  -71.5741 H         1 UNK         0.1079 
     72 H72       -80.2473   25.2776  -69.8157 H         1 UNK         0.0837 
     73 H73       -79.2653   26.0443  -71.0356 H         1 UNK         0.0837 
     74 H74       -79.2127   27.9209  -68.9933 H         1 UNK         0.0685 
     75 H75       -80.1466   29.3582  -69.3248 H         1 UNK         0.0685 
     76 H76       -80.3460   29.5214  -72.2334 H         1 UNK         0.1434 
     77 H77       -76.3316   30.1175  -73.6258 H         1 UNK         0.1329 
     78 H78       -77.0230   28.3344  -69.7962 H         1 UNK         0.1335 
     79 H79       -74.7825   28.3759  -70.7116 H         1 UNK         0.0680 
     80 H80       -74.5463   28.7489  -72.4065 H         1 UNK         0.0680 
     81 H81       -72.2154   30.7811  -69.9582 H         1 UNK         0.1032 
     82 H82       -72.4012   29.2700  -70.8024 H         1 UNK         0.1032 
     83 H83       -71.9925   31.9705  -72.1995 H         1 UNK         0.0461 
     84 H84       -68.6000   31.9219  -71.2073 H         1 UNK         0.3453 
     85 H85       -70.0634   32.8437  -71.4340 H         1 UNK         0.3453 
     86 H86       -72.6267   29.4154  -73.2769 H         1 UNK         0.2984 
     87 H87       -72.9145   30.1480  -76.1677 H         1 UNK         0.0554 
     88 H88       -70.7674   30.6883  -77.2546 H         1 UNK         0.0847 
     89 H89       -71.2669   29.0698  -77.7134 H         1 UNK         0.0847 
     90 H90       -69.9942   29.2945  -76.5140 H         1 UNK         0.0847 
     91 H91       -73.3293   28.0551  -75.6924 H         1 UNK         0.3141 
     92 H92       -71.5101   25.3607  -74.1515 H         1 UNK         0.0743 
     93 H93       -72.9980   26.5797  -72.5271 H         1 UNK         0.0784 
     94 H94       -74.2311   26.7270  -73.7777 H         1 UNK         0.0784 
     95 H95       -73.7619   25.1402  -73.1813 H         1 UNK         0.0784 
     96 H96       -73.8585   25.3210  -75.7546 H         1 UNK         0.3213 
     97 H97       -72.2933   24.4437  -78.8435 H         1 UNK         0.0855 
     98 H98       -73.9911   22.8967  -76.8097 H         1 UNK         0.0814 
     99 H99       -72.4655   22.3634  -77.4996 H         1 UNK         0.0814 
    100 H100      -73.8727   22.5492  -78.5336 H         1 UNK         0.0814 
    101 H101      -74.9617   25.0212  -77.6909 H         1 UNK         0.3105 
    102 H102      -75.2405   28.1404  -79.2792 H         1 UNK         0.0547 
    103 H103      -75.6617   26.7003  -81.2785 H         1 UNK         0.0837 
    104 H104      -76.5658   25.5649  -80.2869 H         1 UNK         0.0837 
    105 H105      -77.1660   27.2063  -80.5303 H         1 UNK         0.0837 
    106 H106      -77.2268   26.5014  -78.0747 H         1 UNK         0.3020 
    107 H107      -76.6715   27.6555  -74.7243 H         1 UNK         0.1245 
    108 H108      -79.1438   27.9671  -75.1748 H         1 UNK         0.0781 
    109 H109      -78.8334   27.9465  -76.8829 H         1 UNK         0.0781 
    110 H110      -78.8961   31.5755  -74.2652 H         1 UNK         0.0836 
    111 H111      -80.0126   30.2499  -74.4836 H         1 UNK         0.0836 
    112 H112      -78.4666   25.8161  -75.0771 H         1 UNK         0.3022 
    113 H113      -76.9291   22.7011  -75.5643 H         1 UNK         0.0747 
    114 H114      -76.2850   23.2382  -73.2236 H         1 UNK         0.0793 
    115 H115      -77.7572   22.2849  -73.2602 H         1 UNK         0.0793 
    116 H116      -77.8331   24.0206  -72.9471 H         1 UNK         0.0793 
    117 H117      -79.5216   23.8633  -74.7613 H         1 UNK         0.3047 
    118 H118      -80.9601   23.5654  -77.9575 H         1 UNK         0.0822 
    119 H119      -81.0714   21.1641  -77.3679 H         1 UNK         0.0807 
    120 H120      -82.5668   21.9664  -76.9168 H         1 UNK         0.0807 
    121 H121      -81.3780   21.5529  -75.6827 H         1 UNK         0.0807 
    122 H122      -81.9112   23.9521  -75.2126 H         1 UNK         0.2946 
    123 H123      -81.4759   27.4718  -75.2689 H         1 UNK         0.1144 
    124 H124      -83.9282   27.6130  -74.9457 H         1 UNK         0.0793 
    125 H125      -84.1378   25.9848  -75.5930 H         1 UNK         0.0793 
    126 H126      -83.5653   27.2836  -76.6308 H         1 UNK         0.0793 
    127 H127      -82.8956   25.8736  -73.4278 H         1 UNK         0.2896 
@<TRIPOS>BOND
     1    1    2 1    
     2    1   67 1    
     3    1   68 1    
     4    1   69 1    
     5    2    3 2    
     6    2    4 am   BACKBONE|DICT|INTERRES
     7    4    5 1    
     8    4   70 1    
     9    5    6 1    
    10    5   65 1    
    11    5   71 1    
    12    6    7 1    
    13    6   72 1    
    14    6   73 1    
    15    7    8 1    
    16    8    9 1    
    17    8   74 1    
    18    8   75 1    
    19    9   10 ar   
    20    9   14 ar   
    21   10   11 ar   
    22   10   76 1    
    23   11   12 ar   
    24   11   48 1    
    25   12   13 ar   
    26   12   77 1    
    27   13   14 ar   
    28   13   15 1    
    29   14   78 1    
    30   15   16 1    
    31   15   79 1    
    32   15   80 1    
    33   16   17 1    
    34   17   18 1    
    35   17   81 1    
    36   17   82 1    
    37   18   19 1    
    38   18   22 1    
    39   18   83 1    
    40   19   20 am   BACKBONE|DICT|INTERRES
    41   19   21 2    
    42   20   84 1    
    43   20   85 1    
    44   22   23 am   BACKBONE|DICT|INTERRES
    45   22   86 1    
    46   23   24 2    
    47   23   25 1    
    48   25   26 1    
    49   25   27 1    
    50   25   87 1    
    51   26   88 1    
    52   26   89 1    
    53   26   90 1    
    54   27   28 am   BACKBONE|DICT|INTERRES
    55   27   91 1    
    56   28   29 2    
    57   28   30 1    
    58   30   31 1    
    59   30   32 1    
    60   30   92 1    
    61   31   93 1    
    62   31   94 1    
    63   31   95 1    
    64   32   33 am   BACKBONE|DICT|INTERRES
    65   32   96 1    
    66   33   34 2    
    67   33   35 1    
    68   35   36 1    
    69   35   37 1    
    70   35   97 1    
    71   36   98 1    
    72   36   99 1    
    73   36  100 1    
    74   37   38 am   BACKBONE|DICT|INTERRES
    75   37  101 1    
    76   38   39 2    
    77   38   40 1    
    78   40   41 1    
    79   40   42 1    
    80   40  102 1    
    81   41  103 1    
    82   41  104 1    
    83   41  105 1    
    84   42   43 am   BACKBONE|DICT|INTERRES
    85   42  106 1    
    86   43   44 2    
    87   43   45 1    
    88   45   46 1    
    89   45   49 1    
    90   45  107 1    
    91   46   47 1    
    92   46  108 1    
    93   46  109 1    
    94   47   48 1    
    95   48  110 1    
    96   48  111 1    
    97   49   50 am   BACKBONE|DICT|INTERRES
    98   49  112 1    
    99   50   51 2    
   100   50   52 1    
   101   52   53 1    
   102   52   54 1    
   103   52  113 1    
   104   53  114 1    
   105   53  115 1    
   106   53  116 1    
   107   54   55 am   BACKBONE|DICT|INTERRES
   108   54  117 1    
   109   55   56 2    
   110   55   57 1    
   111   57   58 1    
   112   57   59 1    
   113   57  118 1    
   114   58  119 1    
   115   58  120 1    
   116   58  121 1    
   117   59   60 am   BACKBONE|DICT|INTERRES
   118   59  122 1    
   119   60   61 2    
   120   60   62 1    
   121   62   63 1    
   122   62   64 1    
   123   62  123 1    
   124   63  124 1    
   125   63  125 1    
   126   63  126 1    
   127   64   65 am   BACKBONE|DICT|INTERRES
   128   64  127 1    
   129   65   66 2    
@<TRIPOS>SUBSTRUCTURE
     1 UNK         1 GROUP             0       ****    0 ROOT    
