@<TRIPOS>MOLECULE
3R135
127   129    1
SMALL
USER_CHARGES


@<TRIPOS>ATOM
      1 CA        -83.8095   29.2226  -76.7704 C.3       0 UNK        -0.1998 
      2 C         -82.7344   29.8714  -75.9111 C.2       0 UNK         0.4909 
      3 O         -82.9290   30.9857  -75.4238 O.2       0 UNK        -0.5240 
      4 N         -81.6031   29.1848  -75.7264 N.am      1 UNK        -0.4739 
      5 CA        -80.4526   29.6475  -74.9500 C.3       1 UNK         0.0864 
      6 C6        -80.6711   29.5813  -73.4113 C.3       11 UNK        -0.0881 
      7 S7        -81.0652   27.9172  -72.7673 S.3       11 UNK        -0.2682 
      8 C8        -80.5725   28.0940  -71.0252 C.3       11 UNK         0.0289 
      9 C9        -79.1450   27.6240  -70.7811 C.ar      11 UNK        -0.0687 
     10 C10       -78.9115   26.3107  -70.3615 C.ar      11 UNK        -0.0823 
     11 C11       -77.6154   25.8735  -70.0709 C.ar      11 UNK        -0.0830 
     12 C12       -76.5452   26.7598  -70.2178 C.ar      11 UNK        -0.1021 
     13 C13       -76.7641   28.0772  -70.6313 C.ar      11 UNK        -0.0753 
     14 C14       -78.0656   28.5045  -70.9152 C.ar      11 UNK        -0.0933 
     15 C15       -75.5941   29.0459  -70.7088 C.3       11 UNK         0.0166 
     16 S16       -74.5969   28.7738  -72.2029 S.3       11 UNK        -0.2615 
     17 C17       -73.1586   29.8419  -71.8567 C.3       11 UNK        -0.0865 
     18 CA        -73.2281   31.2319  -72.5580 C.3       10 UNK         0.0862 
     19 C         -72.0592   32.1685  -72.1211 C.2       10 UNK         0.5551 
     20 N         -71.5162   33.0047  -72.9978 N.am      10 UNK        -0.7319 
     21 O         -71.6573   32.1636  -70.9599 O.2       10 UNK        -0.5018 
     22 N         -73.4399   31.1586  -74.0182 N.am      10 UNK        -0.4509 
     23 C         -72.6479   30.5347  -74.8980 C.2       10 UNK         0.4899 
     24 O         -71.6348   29.8970  -74.5993 O.2       10 UNK        -0.4839 
     25 CA        -73.0375   30.6661  -76.3736 C.3       9 UNK         0.0222 
     26 CB        -72.4191   31.9363  -76.9894 C.3       9 UNK        -0.1966 
     27 N         -72.5556   29.4716  -77.0556 N.am      9 UNK        -0.4218 
     28 C         -72.8877   29.0520  -78.2810 C.2       9 UNK         0.5020 
     29 O         -73.6340   29.6650  -79.0453 O.2       9 UNK        -0.5274 
     30 CA        -72.2881   27.7045  -78.7203 C.3       8 UNK         0.0270 
     31 CB        -70.8746   27.8993  -79.2938 C.3       8 UNK        -0.1976 
     32 N         -72.2472   26.7284  -77.6251 N.am      8 UNK        -0.4313 
     33 C         -73.3341   26.1244  -77.1275 C.2       8 UNK         0.5041 
     34 O         -74.4707   26.2880  -77.5760 O.2       8 UNK        -0.5577 
     35 CA        -73.1165   25.2053  -75.9161 C.3       7 UNK         0.0284 
     36 CB        -73.2029   25.9934  -74.5976 C.3       7 UNK        -0.1958 
     37 N         -74.1252   24.1470  -75.9078 N.am      7 UNK        -0.4454 
     38 C         -73.9904   22.9765  -76.5442 C.2       7 UNK         0.5089 
     39 O         -72.9572   22.6398  -77.1266 O.2       7 UNK        -0.5125 
     40 CA        -75.2081   22.0279  -76.5560 C.3       6 UNK         0.0408 
     41 CB        -74.8018   20.5432  -76.6675 C.3       6 UNK        -0.1791 
     42 N         -76.1457   22.2262  -75.4442 N.am      6 UNK        -0.4762 
     43 C         -75.9076   22.0904  -74.1280 C.2       6 UNK         0.5007 
     44 O         -74.8163   21.7513  -73.6685 O.2       6 UNK        -0.5032 
     45 CA        -77.0830   22.3670  -73.1645 C.3       5 UNK         0.0783 
     46 C46       -76.6379   23.1450  -71.9005 C.3       11 UNK        -0.0857 
     47 S47       -77.9617   23.1651  -70.6480 S.3       11 UNK        -0.2512 
     48 C48       -77.3799   24.4710  -69.5243 C.3       11 UNK         0.0225 
     49 N         -78.1659   23.0651  -73.8631 N.am      5 UNK        -0.4615 
     50 C         -79.3821   22.5654  -74.1145 C.2       4 UNK         0.5053 
     51 O         -79.7585   21.4525  -73.7463 O.2       4 UNK        -0.5105 
     52 CA        -80.3418   23.4466  -74.9382 C.3       4 UNK         0.0263 
     53 CB        -81.2712   24.2340  -74.0005 C.3       4 UNK        -0.1981 
     54 N         -79.6564   24.3871  -75.8301 N.am      4 UNK        -0.4224 
     55 C         -78.8377   24.0478  -76.8372 C.2       3 UNK         0.4895 
     56 O         -78.6245   22.8865  -77.1842 O.2       3 UNK        -0.5091 
     57 CA        -78.0734   25.1878  -77.5310 C.3       3 UNK         0.0250 
     58 CB        -78.8033   25.6256  -78.8100 C.3       3 UNK        -0.1996 
     59 N         -77.8501   26.3592  -76.6787 N.am      3 UNK        -0.4254 
     60 C         -77.1687   26.3813  -75.5263 C.2       2 UNK         0.5004 
     61 O         -76.6774   25.3778  -75.0056 O.2       2 UNK        -0.5226 
     62 CA        -77.0573   27.7373  -74.8093 C.3       2 UNK         0.0269 
     63 CB        -76.0500   28.6688  -75.5124 C.3       2 UNK        -0.1926 
     64 N         -78.3431   28.4165  -74.5868 N.am      2 UNK        -0.4687 
     65 C         -79.1880   28.9479  -75.4837 C.2       1 UNK         0.5165 
     66 O         -79.0082   28.9001  -76.7029 O.2       1 UNK        -0.5079 
     67 H67       -83.5057   28.2401  -77.1314 H         1 UNK         0.0900 
     68 H68       -84.7271   29.1030  -76.1950 H         1 UNK         0.0900 
     69 H69       -84.0279   29.8491  -77.6348 H         1 UNK         0.0900 
     70 H70       -81.4722   28.2954  -76.1880 H         1 UNK         0.2959 
     71 H71       -80.2981   30.6996  -75.2011 H         1 UNK         0.1079 
     72 H72       -79.8054   29.9913  -72.8902 H         1 UNK         0.0837 
     73 H73       -81.4982   30.2381  -73.1379 H         1 UNK         0.0837 
     74 H74       -80.6936   29.1290  -70.7015 H         1 UNK         0.0685 
     75 H75       -81.2619   27.5101  -70.4132 H         1 UNK         0.0685 
     76 H76       -79.7434   25.6306  -70.2374 H         1 UNK         0.1434 
     77 H77       -75.5399   26.4367  -69.9831 H         1 UNK         0.1329 
     78 H78       -78.2385   29.5296  -71.2112 H         1 UNK         0.1335 
     79 H79       -74.9696   28.9191  -69.8231 H         1 UNK         0.0680 
     80 H80       -75.9446   30.0791  -70.6954 H         1 UNK         0.0680 
     81 H81       -72.2582   29.3055  -72.1587 H         1 UNK         0.1032 
     82 H82       -73.0679   29.9648  -70.7762 H         1 UNK         0.1032 
     83 H83       -74.1210   31.7273  -72.1752 H         1 UNK         0.0461 
     84 H84       -71.8426   33.0292  -73.9497 H         1 UNK         0.3453 
     85 H85       -70.7695   33.6139  -72.7023 H         1 UNK         0.3453 
     86 H86       -74.2390   31.6711  -74.3623 H         1 UNK         0.2984 
     87 H87       -74.1250   30.7061  -76.4579 H         1 UNK         0.0554 
     88 H88       -71.3298   31.9198  -76.9352 H         1 UNK         0.0847 
     89 H89       -72.7598   32.8316  -76.4680 H         1 UNK         0.0847 
     90 H90       -72.6987   32.0524  -78.0365 H         1 UNK         0.0847 
     91 H91       -71.9355   28.9075  -76.4876 H         1 UNK         0.3141 
     92 H92       -72.9224   27.3027  -79.5138 H         1 UNK         0.0743 
     93 H93       -70.1808   28.2850  -78.5457 H         1 UNK         0.0784 
     94 H94       -70.4695   26.9626  -79.6772 H         1 UNK         0.0784 
     95 H95       -70.8862   28.6084  -80.1228 H         1 UNK         0.0784 
     96 H96       -71.3438   26.5326  -77.2172 H         1 UNK         0.3213 
     97 H97       -72.1198   24.7639  -75.9852 H         1 UNK         0.0855 
     98 H98       -74.2027   26.3879  -74.4219 H         1 UNK         0.0814 
     99 H99       -72.5128   26.8383  -74.5906 H         1 UNK         0.0814 
    100 H100      -72.9484   25.3616  -73.7466 H         1 UNK         0.0814 
    101 H101      -75.0344   24.3973  -75.5289 H         1 UNK         0.3105 
    102 H102      -75.7666   22.2804  -77.4584 H         1 UNK         0.0547 
    103 H103      -74.2340   20.3587  -77.5803 H         1 UNK         0.0837 
    104 H104      -74.1781   20.2303  -75.8297 H         1 UNK         0.0837 
    105 H105      -75.6761   19.8932  -76.6973 H         1 UNK         0.0837 
    106 H106      -77.0827   22.4924  -75.7241 H         1 UNK         0.3020 
    107 H107      -77.4219   21.3788  -72.8453 H         1 UNK         0.1245 
    108 H108      -76.3586   24.1690  -72.1578 H         1 UNK         0.0781 
    109 H109      -75.7603   22.6878  -71.4396 H         1 UNK         0.0781 
    110 H110      -76.3251   24.3061  -69.2984 H         1 UNK         0.0836 
    111 H111      -77.9116   24.3754  -68.5766 H         1 UNK         0.0836 
    112 H112      -77.9204   23.9832  -74.2196 H         1 UNK         0.3022 
    113 H113      -80.9505   22.7843  -75.5572 H         1 UNK         0.0747 
    114 H114      -81.9925   24.8313  -74.5587 H         1 UNK         0.0793 
    115 H115      -81.8388   23.5593  -73.3581 H         1 UNK         0.0793 
    116 H116      -80.7098   24.9051  -73.3488 H         1 UNK         0.0793 
    117 H117      -79.7571   25.3680  -75.6159 H         1 UNK         0.3047 
    118 H118      -77.0910   24.7996  -77.8089 H         1 UNK         0.0822 
    119 H119      -78.2232   26.3651  -79.3624 H         1 UNK         0.0807 
    120 H120      -79.7789   26.0609  -78.5896 H         1 UNK         0.0807 
    121 H121      -78.9655   24.7782  -79.4778 H         1 UNK         0.0807 
    122 H122      -78.2384   27.2448  -76.9949 H         1 UNK         0.2946 
    123 H123      -76.6668   27.5189  -73.8142 H         1 UNK         0.1144 
    124 H124      -75.0616   28.2139  -75.5607 H         1 UNK         0.0793 
    125 H125      -75.9442   29.6096  -74.9731 H         1 UNK         0.0793 
    126 H126      -76.3429   28.8989  -76.5370 H         1 UNK         0.0793 
    127 H127      -78.6398   28.4398  -73.6199 H         1 UNK         0.2896 
@<TRIPOS>BOND
     1    1    2 1    
     2    1   67 1    
     3    1   68 1    
     4    1   69 1    
     5    2    3 2    
     6    2    4 am   BACKBONE|DICT|INTERRES
     7    4    5 1    
     8    4   70 1    
     9    5    6 1    
    10    5   65 1    
    11    5   71 1    
    12    6    7 1    
    13    6   72 1    
    14    6   73 1    
    15    7    8 1    
    16    8    9 1    
    17    8   74 1    
    18    8   75 1    
    19    9   10 ar   
    20    9   14 ar   
    21   10   11 ar   
    22   10   76 1    
    23   11   12 ar   
    24   11   48 1    
    25   12   13 ar   
    26   12   77 1    
    27   13   14 ar   
    28   13   15 1    
    29   14   78 1    
    30   15   16 1    
    31   15   79 1    
    32   15   80 1    
    33   16   17 1    
    34   17   18 1    
    35   17   81 1    
    36   17   82 1    
    37   18   19 1    
    38   18   22 1    
    39   18   83 1    
    40   19   20 am   BACKBONE|DICT|INTERRES
    41   19   21 2    
    42   20   84 1    
    43   20   85 1    
    44   22   23 am   BACKBONE|DICT|INTERRES
    45   22   86 1    
    46   23   24 2    
    47   23   25 1    
    48   25   26 1    
    49   25   27 1    
    50   25   87 1    
    51   26   88 1    
    52   26   89 1    
    53   26   90 1    
    54   27   28 am   BACKBONE|DICT|INTERRES
    55   27   91 1    
    56   28   29 2    
    57   28   30 1    
    58   30   31 1    
    59   30   32 1    
    60   30   92 1    
    61   31   93 1    
    62   31   94 1    
    63   31   95 1    
    64   32   33 am   BACKBONE|DICT|INTERRES
    65   32   96 1    
    66   33   34 2    
    67   33   35 1    
    68   35   36 1    
    69   35   37 1    
    70   35   97 1    
    71   36   98 1    
    72   36   99 1    
    73   36  100 1    
    74   37   38 am   BACKBONE|DICT|INTERRES
    75   37  101 1    
    76   38   39 2    
    77   38   40 1    
    78   40   41 1    
    79   40   42 1    
    80   40  102 1    
    81   41  103 1    
    82   41  104 1    
    83   41  105 1    
    84   42   43 am   BACKBONE|DICT|INTERRES
    85   42  106 1    
    86   43   44 2    
    87   43   45 1    
    88   45   46 1    
    89   45   49 1    
    90   45  107 1    
    91   46   47 1    
    92   46  108 1    
    93   46  109 1    
    94   47   48 1    
    95   48  110 1    
    96   48  111 1    
    97   49   50 am   BACKBONE|DICT|INTERRES
    98   49  112 1    
    99   50   51 2    
   100   50   52 1    
   101   52   53 1    
   102   52   54 1    
   103   52  113 1    
   104   53  114 1    
   105   53  115 1    
   106   53  116 1    
   107   54   55 am   BACKBONE|DICT|INTERRES
   108   54  117 1    
   109   55   56 2    
   110   55   57 1    
   111   57   58 1    
   112   57   59 1    
   113   57  118 1    
   114   58  119 1    
   115   58  120 1    
   116   58  121 1    
   117   59   60 am   BACKBONE|DICT|INTERRES
   118   59  122 1    
   119   60   61 2    
   120   60   62 1    
   121   62   63 1    
   122   62   64 1    
   123   62  123 1    
   124   63  124 1    
   125   63  125 1    
   126   63  126 1    
   127   64   65 am   BACKBONE|DICT|INTERRES
   128   64  127 1    
   129   65   66 2    
@<TRIPOS>SUBSTRUCTURE
     1 UNK         1 GROUP             0       ****    0 ROOT    
