@<TRIPOS>MOLECULE
3R135
127   129    1
SMALL
USER_CHARGES


@<TRIPOS>ATOM
      1 CA        -84.0090   25.1480  -75.3494 C.3       0 UNK        -0.1998 
      2 C         -82.8286   25.7235  -74.5831 C.2       0 UNK         0.4909 
      3 O         -81.6830   25.4143  -74.9106 O.2       0 UNK        -0.5240 
      4 N         -83.0945   26.5637  -73.5721 N.am      1 UNK        -0.4739 
      5 CA        -82.0971   27.2366  -72.7259 C.3       1 UNK         0.0864 
      6 C6        -81.3806   26.2403  -71.7582 C.3       11 UNK        -0.0881 
      7 S7        -81.3497   26.8054  -70.0224 S.3       11 UNK        -0.2682 
      8 C8        -80.1374   28.1736  -70.0223 C.3       11 UNK         0.0289 
      9 C9        -78.6759   27.8018  -70.2843 C.ar      11 UNK        -0.0687 
     10 C10       -78.2080   26.4800  -70.3028 C.ar      11 UNK        -0.0823 
     11 C11       -76.8595   26.2025  -70.5492 C.ar      11 UNK        -0.0830 
     12 C12       -75.9675   27.2583  -70.7540 C.ar      11 UNK        -0.1021 
     13 C13       -76.4152   28.5805  -70.7386 C.ar      11 UNK        -0.0753 
     14 C14       -77.7666   28.8429  -70.4981 C.ar      11 UNK        -0.0933 
     15 C15       -75.4381   29.7212  -70.9800 C.3       11 UNK         0.0166 
     16 S16       -75.8200   30.5979  -72.5271 S.3       11 UNK        -0.2615 
     17 C17       -74.2848   31.5423  -72.8096 C.3       11 UNK        -0.0865 
     18 CA        -73.8998   31.6307  -74.3111 C.3       10 UNK         0.0862 
     19 C         -72.5723   32.4292  -74.4746 C.2       10 UNK         0.5551 
     20 N         -71.4530   31.7988  -74.8147 N.am      10 UNK        -0.7319 
     21 O         -72.5619   33.6429  -74.2849 O.2       10 UNK        -0.5018 
     22 N         -73.8980   30.3082  -74.9549 N.am      10 UNK        -0.4509 
     23 C         -73.8118   30.0806  -76.2716 C.2       10 UNK         0.4899 
     24 O         -73.8631   30.9721  -77.1205 O.2       10 UNK        -0.4839 
     25 CA        -73.6243   28.6125  -76.7143 C.3       9 UNK         0.0222 
     26 CB        -72.7774   28.4956  -77.9982 C.3       9 UNK        -0.1966 
     27 N         -73.0870   27.7271  -75.6701 N.am      9 UNK        -0.4218 
     28 C         -71.9434   27.8647  -74.9774 C.2       9 UNK         0.5020 
     29 O         -71.1519   28.7975  -75.1247 O.2       9 UNK        -0.5274 
     30 CA        -71.6580   26.7963  -73.9143 C.3       8 UNK         0.0270 
     31 CB        -72.5949   26.9747  -72.7068 C.3       8 UNK        -0.1976 
     32 N         -71.8331   25.4582  -74.4766 N.am      8 UNK        -0.4313 
     33 C         -70.8371   24.6796  -74.9218 C.2       8 UNK         0.5041 
     34 O         -69.6428   24.9638  -74.8193 O.2       8 UNK        -0.5577 
     35 CA        -71.2331   23.3565  -75.6057 C.3       7 UNK         0.0284 
     36 CB        -71.2599   22.2097  -74.5822 C.3       7 UNK        -0.1958 
     37 N         -72.5291   23.4290  -76.2841 N.am      7 UNK        -0.4454 
     38 C         -72.7866   24.1817  -77.3631 C.2       7 UNK         0.5089 
     39 O         -71.9230   24.7960  -77.9888 O.2       7 UNK        -0.5125 
     40 CA        -74.2576   24.2937  -77.8068 C.3       6 UNK         0.0408 
     41 CB        -74.5144   23.4268  -79.0490 C.3       6 UNK        -0.1791 
     42 N         -75.2425   23.9508  -76.7732 N.am      6 UNK        -0.4762 
     43 C         -75.4145   24.5822  -75.6028 C.2       6 UNK         0.5007 
     44 O         -74.6790   25.4942  -75.2202 O.2       6 UNK        -0.5032 
     45 CA        -76.5971   24.1057  -74.7276 C.3       5 UNK         0.0783 
     46 C46       -76.7330   24.8812  -73.3937 C.3       11 UNK        -0.0857 
     47 S47       -75.5031   24.3588  -72.1511 S.3       11 UNK        -0.2512 
     48 C48       -76.3680   24.7596  -70.5951 C.3       11 UNK         0.0225 
     49 N         -77.8507   24.1556  -75.4821 N.am      5 UNK        -0.4615 
     50 C         -78.2727   23.2454  -76.3686 C.2       4 UNK         0.5053 
     51 O         -77.6398   22.2262  -76.6462 O.2       4 UNK        -0.5105 
     52 CA        -79.6034   23.5276  -77.0825 C.3       4 UNK         0.0263 
     53 CB        -80.7374   22.7094  -76.4442 C.3       4 UNK        -0.1981 
     54 N         -79.9515   24.9522  -77.0628 N.am      4 UNK        -0.4224 
     55 C         -79.4429   25.8571  -77.9116 C.2       3 UNK         0.4895 
     56 O         -78.6588   25.5782  -78.8194 O.2       3 UNK        -0.5091 
     57 CA        -79.8805   27.3182  -77.7222 C.3       3 UNK         0.0250 
     58 CB        -81.3230   27.5226  -78.2139 C.3       3 UNK        -0.1996 
     59 N         -79.7663   27.7982  -76.3440 N.am      3 UNK        -0.4254 
     60 C         -78.6306   27.9481  -75.6499 C.2       2 UNK         0.5004 
     61 O         -77.5218   27.6313  -76.0777 O.2       2 UNK        -0.5226 
     62 CA        -78.7423   28.5518  -74.2359 C.3       2 UNK         0.0269 
     63 CB        -78.8065   30.0906  -74.2982 C.3       2 UNK        -0.1926 
     64 N         -79.8358   27.9896  -73.4271 N.am      2 UNK        -0.4687 
     65 C         -81.1612   28.1119  -73.5986 C.2       1 UNK         0.5165 
     66 O         -81.6668   28.8419  -74.4548 O.2       1 UNK        -0.5079 
     67 H67       -83.9545   25.4430  -76.3969 H         1 UNK         0.0900 
     68 H68       -83.9902   24.0597  -75.3008 H         1 UNK         0.0900 
     69 H69       -84.9625   25.4905  -74.9480 H         1 UNK         0.0900 
     70 H70       -84.0559   26.8064  -73.3770 H         1 UNK         0.2959 
     71 H71       -82.6721   27.9465  -72.1291 H         1 UNK         0.1079 
     72 H72       -81.9393   25.3032  -71.7289 H         1 UNK         0.0837 
     73 H73       -80.3898   25.9296  -72.0884 H         1 UNK         0.0837 
     74 H74       -80.4588   28.9267  -70.7428 H         1 UNK         0.0685 
     75 H75       -80.1872   28.6549  -69.0447 H         1 UNK         0.0685 
     76 H76       -78.8857   25.6577  -70.1246 H         1 UNK         0.1434 
     77 H77       -74.9240   27.0440  -70.9361 H         1 UNK         0.1329 
     78 H78       -78.1110   29.8683  -70.4857 H         1 UNK         0.1335 
     79 H79       -74.4166   29.3399  -71.0184 H         1 UNK         0.0680 
     80 H80       -75.4792   30.4233  -70.1461 H         1 UNK         0.0680 
     81 H81       -73.4699   31.0895  -72.2418 H         1 UNK         0.1032 
     82 H82       -74.4232   32.5421  -72.3933 H         1 UNK         0.1032 
     83 H83       -74.6723   32.2177  -74.8116 H         1 UNK         0.0461 
     84 H84       -70.6015   32.3270  -74.9184 H         1 UNK         0.3453 
     85 H85       -71.4452   30.7950  -74.9635 H         1 UNK         0.3453 
     86 H86       -73.8779   29.5158  -74.3323 H         1 UNK         0.2984 
     87 H87       -74.6234   28.2357  -76.9390 H         1 UNK         0.0554 
     88 H88       -73.2356   29.0398  -78.8247 H         1 UNK         0.0847 
     89 H89       -72.6775   27.4575  -78.3142 H         1 UNK         0.0847 
     90 H90       -71.7747   28.9004  -77.8568 H         1 UNK         0.0847 
     91 H91       -73.6848   26.9306  -75.4469 H         1 UNK         0.3141 
     92 H92       -70.6312   26.9297  -73.5669 H         1 UNK         0.0743 
     93 H93       -73.6437   26.8588  -72.9837 H         1 UNK         0.0784 
     94 H94       -72.3766   26.2446  -71.9273 H         1 UNK         0.0784 
     95 H95       -72.4794   27.9654  -72.2652 H         1 UNK         0.0784 
     96 H96       -72.7901   25.1655  -74.6438 H         1 UNK         0.3213 
     97 H97       -70.4713   23.1317  -76.3556 H         1 UNK         0.0855 
     98 H98       -72.0152   22.3715  -73.8119 H         1 UNK         0.0814 
     99 H99       -70.2967   22.1158  -74.0785 H         1 UNK         0.0814 
    100 H100      -71.4666   21.2529  -75.0620 H         1 UNK         0.0814 
    101 H101      -73.3016   22.9407  -75.8556 H         1 UNK         0.3105 
    102 H102      -74.4280   25.3373  -78.0797 H         1 UNK         0.0547 
    103 H103      -75.5224   23.5774  -79.4363 H         1 UNK         0.0837 
    104 H104      -74.3919   22.3649  -78.8323 H         1 UNK         0.0837 
    105 H105      -73.8204   23.6782  -79.8524 H         1 UNK         0.0837 
    106 H106      -75.9003   23.2105  -76.9979 H         1 UNK         0.3020 
    107 H107      -76.4016   23.0589  -74.4823 H         1 UNK         0.1245 
    108 H108      -77.7218   24.7033  -72.9672 H         1 UNK         0.0781 
    109 H109      -76.6630   25.9603  -73.5456 H         1 UNK         0.0781 
    110 H110      -75.6892   24.5883  -69.7586 H         1 UNK         0.0836 
    111 H111      -77.1964   24.0612  -70.4669 H         1 UNK         0.0836 
    112 H112      -78.4065   24.9900  -75.3688 H         1 UNK         0.3022 
    113 H113      -79.4981   23.2041  -78.1204 H         1 UNK         0.0747 
    114 H114      -81.6930   22.9069  -76.9303 H         1 UNK         0.0793 
    115 H115      -80.5422   21.6399  -76.5329 H         1 UNK         0.0793 
    116 H116      -80.8489   22.9311  -75.3822 H         1 UNK         0.0793 
    117 H117      -80.5929   25.2515  -76.3274 H         1 UNK         0.3047 
    118 H118      -79.2231   27.9371  -78.3366 H         1 UNK         0.0822 
    119 H119      -81.6039   28.5757  -78.1896 H         1 UNK         0.0807 
    120 H120      -82.0404   26.9717  -77.6044 H         1 UNK         0.0807 
    121 H121      -81.4377   27.1812  -79.2437 H         1 UNK         0.0807 
    122 H122      -80.6232   28.0953  -75.8861 H         1 UNK         0.2946 
    123 H123      -77.8210   28.2893  -73.7114 H         1 UNK         0.1144 
    124 H124      -79.6699   30.4493  -74.8583 H         1 UNK         0.0793 
    125 H125      -77.9190   30.4924  -74.7887 H         1 UNK         0.0793 
    126 H126      -78.8492   30.5248  -73.2994 H         1 UNK         0.0793 
    127 H127      -79.5270   27.3697  -72.6917 H         1 UNK         0.2896 
@<TRIPOS>BOND
     1    1    2 1    
     2    1   67 1    
     3    1   68 1    
     4    1   69 1    
     5    2    3 2    
     6    2    4 am   BACKBONE|DICT|INTERRES
     7    4    5 1    
     8    4   70 1    
     9    5    6 1    
    10    5   65 1    
    11    5   71 1    
    12    6    7 1    
    13    6   72 1    
    14    6   73 1    
    15    7    8 1    
    16    8    9 1    
    17    8   74 1    
    18    8   75 1    
    19    9   10 ar   
    20    9   14 ar   
    21   10   11 ar   
    22   10   76 1    
    23   11   12 ar   
    24   11   48 1    
    25   12   13 ar   
    26   12   77 1    
    27   13   14 ar   
    28   13   15 1    
    29   14   78 1    
    30   15   16 1    
    31   15   79 1    
    32   15   80 1    
    33   16   17 1    
    34   17   18 1    
    35   17   81 1    
    36   17   82 1    
    37   18   19 1    
    38   18   22 1    
    39   18   83 1    
    40   19   20 am   BACKBONE|DICT|INTERRES
    41   19   21 2    
    42   20   84 1    
    43   20   85 1    
    44   22   23 am   BACKBONE|DICT|INTERRES
    45   22   86 1    
    46   23   24 2    
    47   23   25 1    
    48   25   26 1    
    49   25   27 1    
    50   25   87 1    
    51   26   88 1    
    52   26   89 1    
    53   26   90 1    
    54   27   28 am   BACKBONE|DICT|INTERRES
    55   27   91 1    
    56   28   29 2    
    57   28   30 1    
    58   30   31 1    
    59   30   32 1    
    60   30   92 1    
    61   31   93 1    
    62   31   94 1    
    63   31   95 1    
    64   32   33 am   BACKBONE|DICT|INTERRES
    65   32   96 1    
    66   33   34 2    
    67   33   35 1    
    68   35   36 1    
    69   35   37 1    
    70   35   97 1    
    71   36   98 1    
    72   36   99 1    
    73   36  100 1    
    74   37   38 am   BACKBONE|DICT|INTERRES
    75   37  101 1    
    76   38   39 2    
    77   38   40 1    
    78   40   41 1    
    79   40   42 1    
    80   40  102 1    
    81   41  103 1    
    82   41  104 1    
    83   41  105 1    
    84   42   43 am   BACKBONE|DICT|INTERRES
    85   42  106 1    
    86   43   44 2    
    87   43   45 1    
    88   45   46 1    
    89   45   49 1    
    90   45  107 1    
    91   46   47 1    
    92   46  108 1    
    93   46  109 1    
    94   47   48 1    
    95   48  110 1    
    96   48  111 1    
    97   49   50 am   BACKBONE|DICT|INTERRES
    98   49  112 1    
    99   50   51 2    
   100   50   52 1    
   101   52   53 1    
   102   52   54 1    
   103   52  113 1    
   104   53  114 1    
   105   53  115 1    
   106   53  116 1    
   107   54   55 am   BACKBONE|DICT|INTERRES
   108   54  117 1    
   109   55   56 2    
   110   55   57 1    
   111   57   58 1    
   112   57   59 1    
   113   57  118 1    
   114   58  119 1    
   115   58  120 1    
   116   58  121 1    
   117   59   60 am   BACKBONE|DICT|INTERRES
   118   59  122 1    
   119   60   61 2    
   120   60   62 1    
   121   62   63 1    
   122   62   64 1    
   123   62  123 1    
   124   63  124 1    
   125   63  125 1    
   126   63  126 1    
   127   64   65 am   BACKBONE|DICT|INTERRES
   128   64  127 1    
   129   65   66 2    
@<TRIPOS>SUBSTRUCTURE
     1 UNK         1 GROUP             0       ****    0 ROOT    
