@<TRIPOS>MOLECULE
3R135
127   129    1
SMALL
USER_CHARGES


@<TRIPOS>ATOM
      1 CA        -87.3901   28.2642  -71.6506 C.3       0 UNK        -0.1998 
      2 C         -86.0522   28.1020  -72.3568 C.2       0 UNK         0.4909 
      3 O         -86.0003   28.1438  -73.5869 O.2       0 UNK        -0.5240 
      4 N         -84.9693   27.9253  -71.5889 N.am      1 UNK        -0.4739 
      5 CA        -83.6152   27.6824  -72.0998 C.3       1 UNK         0.0864 
      6 C6        -82.5382   27.9906  -71.0198 C.3       11 UNK        -0.0881 
      7 S7        -81.1265   28.9338  -71.6856 S.3       11 UNK        -0.2682 
      8 C8        -79.8515   27.6450  -71.8980 C.3       11 UNK         0.0289 
      9 C9        -78.5083   28.2211  -72.3330 C.ar      11 UNK        -0.0687 
     10 C10       -78.4280   29.1251  -73.3993 C.ar      11 UNK        -0.0823 
     11 C11       -77.1990   29.6681  -73.7864 C.ar      11 UNK        -0.0830 
     12 C12       -76.0376   29.2736  -73.1182 C.ar      11 UNK        -0.1021 
     13 C13       -76.0985   28.3512  -72.0699 C.ar      11 UNK        -0.0753 
     14 C14       -77.3358   27.8338  -71.6762 C.ar      11 UNK        -0.0933 
     15 C15       -74.8200   27.9142  -71.3760 C.3       11 UNK         0.0166 
     16 S16       -74.1391   29.2553  -70.3533 S.3       11 UNK        -0.2615 
     17 C17       -72.3670   28.8209  -70.3391 C.3       11 UNK        -0.0865 
     18 CA        -71.5420   29.6718  -71.3427 C.3       10 UNK         0.0862 
     19 C         -70.0125   29.4710  -71.1230 C.2       10 UNK         0.5551 
     20 N         -69.2428   29.0447  -72.1172 N.am      10 UNK        -0.7319 
     21 O         -69.5133   29.7155  -70.0274 O.2       10 UNK        -0.5018 
     22 N         -71.9927   29.4644  -72.7306 N.am      10 UNK        -0.4509 
     23 C         -71.8209   30.3223  -73.7420 C.2       10 UNK         0.4899 
     24 O         -71.2885   31.4265  -73.6210 O.2       10 UNK        -0.4839 
     25 CA        -72.2955   29.8357  -75.1257 C.3       9 UNK         0.0222 
     26 CB        -72.1375   30.9033  -76.2235 C.3       9 UNK        -0.1966 
     27 N         -71.5880   28.6178  -75.5332 N.am      9 UNK        -0.4218 
     28 C         -71.8959   27.3837  -75.1176 C.2       9 UNK         0.5020 
     29 O         -72.8176   27.1396  -74.3382 O.2       9 UNK        -0.5274 
     30 CA        -70.9944   26.2429  -75.5905 C.3       8 UNK         0.0270 
     31 CB        -70.1016   25.7445  -74.4370 C.3       8 UNK        -0.1976 
     32 N         -71.8348   25.1627  -76.0990 N.am      8 UNK        -0.4313 
     33 C         -71.4129   24.1859  -76.9124 C.2       8 UNK         0.5041 
     34 O         -70.2417   24.0453  -77.2683 O.2       8 UNK        -0.5577 
     35 CA        -72.4802   23.2271  -77.4587 C.3       7 UNK         0.0284 
     36 CB        -72.9551   22.2366  -76.3816 C.3       7 UNK        -0.1958 
     37 N         -73.6143   23.9767  -77.9994 N.am      7 UNK        -0.4454 
     38 C         -73.6345   24.5303  -79.2212 C.2       7 UNK         0.5089 
     39 O         -72.7411   24.3780  -80.0551 O.2       7 UNK        -0.5125 
     40 CA        -74.8490   25.4020  -79.5874 C.3       6 UNK         0.0408 
     41 CB        -75.8593   24.5936  -80.4167 C.3       6 UNK        -0.1791 
     42 N         -75.5197   25.9664  -78.4145 N.am      6 UNK        -0.4762 
     43 C         -75.0443   26.9959  -77.6942 C.2       6 UNK         0.5007 
     44 O         -74.0147   27.6062  -77.9825 O.2       6 UNK        -0.5032 
     45 CA        -75.8388   27.3989  -76.4305 C.3       5 UNK         0.0783 
     46 C46       -76.8212   28.5612  -76.7414 C.3       11 UNK        -0.0857 
     47 S47       -76.0933   30.1756  -76.3105 S.3       11 UNK        -0.2512 
     48 C48       -77.1363   30.6983  -74.9091 C.3       11 UNK         0.0225 
     49 N         -76.5237   26.2719  -75.7887 N.am      5 UNK        -0.4615 
     50 C         -75.9307   25.1557  -75.3438 C.2       4 UNK         0.5053 
     51 O         -74.7186   24.9529  -75.4050 O.2       4 UNK        -0.5105 
     52 CA        -76.8464   24.0420  -74.8070 C.3       4 UNK         0.0263 
     53 CB        -77.0020   24.1795  -73.2838 C.3       4 UNK        -0.1981 
     54 N         -78.1793   23.9827  -75.4212 N.am      4 UNK        -0.4224 
     55 C         -78.4696   23.9512  -76.7323 C.2       3 UNK         0.4895 
     56 O         -77.6154   23.9936  -77.6179 O.2       3 UNK        -0.5091 
     57 CA        -79.9565   23.8692  -77.1379 C.3       3 UNK         0.0250 
     58 CB        -80.2191   22.6072  -77.9776 C.3       3 UNK        -0.1996 
     59 N         -80.8957   23.8915  -76.0094 N.am      3 UNK        -0.4254 
     60 C         -81.1816   24.9664  -75.2633 C.2       2 UNK         0.5004 
     61 O         -80.6935   26.0844  -75.4505 O.2       2 UNK        -0.5226 
     62 CA        -82.1164   24.7297  -74.0715 C.3       2 UNK         0.0269 
     63 CB        -81.4052   23.8867  -72.9893 C.3       2 UNK        -0.1926 
     64 N         -82.5103   26.0249  -73.5239 N.am      2 UNK        -0.4687 
     65 C         -83.4775   26.2382  -72.6278 C.2       1 UNK         0.5165 
     66 O         -84.2057   25.3447  -72.1856 O.2       1 UNK        -0.5079 
     67 H67       -87.8384   29.2227  -71.9110 H         1 UNK         0.0900 
     68 H68       -88.0739   27.4731  -71.9572 H         1 UNK         0.0900 
     69 H69       -87.2869   28.2217  -70.5664 H         1 UNK         0.0900 
     70 H70       -85.0792   27.8616  -70.5869 H         1 UNK         0.2959 
     71 H71       -83.4746   28.3559  -72.9489 H         1 UNK         0.1079 
     72 H72       -82.1872   27.0923  -70.5066 H         1 UNK         0.0837 
     73 H73       -82.9609   28.6153  -70.2311 H         1 UNK         0.0837 
     74 H74       -79.7468   27.0966  -70.9605 H         1 UNK         0.0685 
     75 H75       -80.1706   26.9248  -72.6488 H         1 UNK         0.0685 
     76 H76       -79.3311   29.4204  -73.9156 H         1 UNK         0.1434 
     77 H77       -75.0830   29.6866  -73.4113 H         1 UNK         0.1329 
     78 H78       -77.3841   27.1263  -70.8599 H         1 UNK         0.1335 
     79 H79       -74.9913   27.0371  -70.7502 H         1 UNK         0.0680 
     80 H80       -74.0983   27.6126  -72.1338 H         1 UNK         0.0680 
     81 H81       -72.0099   28.9815  -69.3198 H         1 UNK         0.1032 
     82 H82       -72.2375   27.7548  -70.5347 H         1 UNK         0.1032 
     83 H83       -71.7277   30.7200  -71.1001 H         1 UNK         0.0461 
     84 H84       -69.6381   28.8677  -73.0250 H         1 UNK         0.3453 
     85 H85       -68.2545   28.9250  -71.9603 H         1 UNK         0.3453 
     86 H86       -72.4071   28.5640  -72.9467 H         1 UNK         0.2984 
     87 H87       -73.3605   29.6125  -75.0429 H         1 UNK         0.0554 
     88 H88       -72.6829   31.8117  -75.9642 H         1 UNK         0.0847 
     89 H89       -72.5370   30.5512  -77.1750 H         1 UNK         0.0847 
     90 H90       -71.0936   31.1800  -76.3763 H         1 UNK         0.0847 
     91 H91       -70.7963   28.7430  -76.1482 H         1 UNK         0.3141 
     92 H92       -70.3615   26.6057  -76.4034 H         1 UNK         0.0743 
     93 H93       -70.6961   25.3432  -73.6151 H         1 UNK         0.0784 
     94 H94       -69.4185   24.9621  -74.7676 H         1 UNK         0.0784 
     95 H95       -69.4917   26.5541  -74.0349 H         1 UNK         0.0784 
     96 H96       -72.8174   25.2106  -75.8301 H         1 UNK         0.3213 
     97 H97       -72.0277   22.6438  -78.2641 H         1 UNK         0.0855 
     98 H98       -73.3789   22.7394  -75.5126 H         1 UNK         0.0814 
     99 H99       -72.1231   21.6277  -76.0258 H         1 UNK         0.0814 
    100 H100      -73.7095   21.5553  -76.7751 H         1 UNK         0.0814 
    101 H101      -74.3578   24.2062  -77.3512 H         1 UNK         0.3105 
    102 H102      -74.4900   26.2265  -80.2072 H         1 UNK         0.0547 
    103 H103      -75.4030   24.2317  -81.3391 H         1 UNK         0.0837 
    104 H104      -76.2242   23.7216  -79.8732 H         1 UNK         0.0837 
    105 H105      -76.7207   25.1994  -80.6976 H         1 UNK         0.0837 
    106 H106      -76.3517   25.4785  -78.0932 H         1 UNK         0.3020 
    107 H107      -75.1003   27.7351  -75.6986 H         1 UNK         0.1245 
    108 H108      -77.7559   28.4421  -76.1920 H         1 UNK         0.0781 
    109 H109      -77.1208   28.5813  -77.7915 H         1 UNK         0.0781 
    110 H110      -78.1356   30.9243  -75.2845 H         1 UNK         0.0836 
    111 H111      -76.7433   31.6338  -74.5088 H         1 UNK         0.0836 
    112 H112      -77.5271   26.3424  -75.7038 H         1 UNK         0.3022 
    113 H113      -76.3530   23.0914  -75.0192 H         1 UNK         0.0747 
    114 H114      -77.5430   23.3335  -72.8596 H         1 UNK         0.0793 
    115 H115      -76.0281   24.2178  -72.7931 H         1 UNK         0.0793 
    116 H116      -77.5369   25.0914  -73.0147 H         1 UNK         0.0793 
    117 H117      -78.9582   23.9488  -74.7820 H         1 UNK         0.3047 
    118 H118      -80.1588   24.7410  -77.7640 H         1 UNK         0.0822 
    119 H119      -81.2492   22.5734  -78.3332 H         1 UNK         0.0807 
    120 H120      -80.0287   21.6965  -77.4084 H         1 UNK         0.0807 
    121 H121      -79.5760   22.5803  -78.8586 H         1 UNK         0.0807 
    122 H122      -81.3325   23.0101  -75.7776 H         1 UNK         0.2946 
    123 H123      -83.0084   24.2087  -74.4272 H         1 UNK         0.1144 
    124 H124      -82.0589   23.6862  -72.1406 H         1 UNK         0.0793 
    125 H125      -80.5139   24.3870  -72.6086 H         1 UNK         0.0793 
    126 H126      -81.0947   22.9163  -73.3782 H         1 UNK         0.0793 
    127 H127      -81.9681   26.8008  -73.8865 H         1 UNK         0.2896 
@<TRIPOS>BOND
     1    1    2 1    
     2    1   67 1    
     3    1   68 1    
     4    1   69 1    
     5    2    3 2    
     6    2    4 am   BACKBONE|DICT|INTERRES
     7    4    5 1    
     8    4   70 1    
     9    5    6 1    
    10    5   65 1    
    11    5   71 1    
    12    6    7 1    
    13    6   72 1    
    14    6   73 1    
    15    7    8 1    
    16    8    9 1    
    17    8   74 1    
    18    8   75 1    
    19    9   10 ar   
    20    9   14 ar   
    21   10   11 ar   
    22   10   76 1    
    23   11   12 ar   
    24   11   48 1    
    25   12   13 ar   
    26   12   77 1    
    27   13   14 ar   
    28   13   15 1    
    29   14   78 1    
    30   15   16 1    
    31   15   79 1    
    32   15   80 1    
    33   16   17 1    
    34   17   18 1    
    35   17   81 1    
    36   17   82 1    
    37   18   19 1    
    38   18   22 1    
    39   18   83 1    
    40   19   20 am   BACKBONE|DICT|INTERRES
    41   19   21 2    
    42   20   84 1    
    43   20   85 1    
    44   22   23 am   BACKBONE|DICT|INTERRES
    45   22   86 1    
    46   23   24 2    
    47   23   25 1    
    48   25   26 1    
    49   25   27 1    
    50   25   87 1    
    51   26   88 1    
    52   26   89 1    
    53   26   90 1    
    54   27   28 am   BACKBONE|DICT|INTERRES
    55   27   91 1    
    56   28   29 2    
    57   28   30 1    
    58   30   31 1    
    59   30   32 1    
    60   30   92 1    
    61   31   93 1    
    62   31   94 1    
    63   31   95 1    
    64   32   33 am   BACKBONE|DICT|INTERRES
    65   32   96 1    
    66   33   34 2    
    67   33   35 1    
    68   35   36 1    
    69   35   37 1    
    70   35   97 1    
    71   36   98 1    
    72   36   99 1    
    73   36  100 1    
    74   37   38 am   BACKBONE|DICT|INTERRES
    75   37  101 1    
    76   38   39 2    
    77   38   40 1    
    78   40   41 1    
    79   40   42 1    
    80   40  102 1    
    81   41  103 1    
    82   41  104 1    
    83   41  105 1    
    84   42   43 am   BACKBONE|DICT|INTERRES
    85   42  106 1    
    86   43   44 2    
    87   43   45 1    
    88   45   46 1    
    89   45   49 1    
    90   45  107 1    
    91   46   47 1    
    92   46  108 1    
    93   46  109 1    
    94   47   48 1    
    95   48  110 1    
    96   48  111 1    
    97   49   50 am   BACKBONE|DICT|INTERRES
    98   49  112 1    
    99   50   51 2    
   100   50   52 1    
   101   52   53 1    
   102   52   54 1    
   103   52  113 1    
   104   53  114 1    
   105   53  115 1    
   106   53  116 1    
   107   54   55 am   BACKBONE|DICT|INTERRES
   108   54  117 1    
   109   55   56 2    
   110   55   57 1    
   111   57   58 1    
   112   57   59 1    
   113   57  118 1    
   114   58  119 1    
   115   58  120 1    
   116   58  121 1    
   117   59   60 am   BACKBONE|DICT|INTERRES
   118   59  122 1    
   119   60   61 2    
   120   60   62 1    
   121   62   63 1    
   122   62   64 1    
   123   62  123 1    
   124   63  124 1    
   125   63  125 1    
   126   63  126 1    
   127   64   65 am   BACKBONE|DICT|INTERRES
   128   64  127 1    
   129   65   66 2    
@<TRIPOS>SUBSTRUCTURE
     1 UNK         1 GROUP             0       ****    0 ROOT    
