@<TRIPOS>MOLECULE
3R135
127   129    1
SMALL
USER_CHARGES


@<TRIPOS>ATOM
      1 CA        -76.2981   27.2488  -73.0712 C.3       0 UNK        -0.1998 
      2 C         -76.7434   26.7833  -71.6987 C.2       0 UNK         0.4909 
      3 O         -76.0296   26.0187  -71.0496 O.2       0 UNK        -0.5240 
      4 N         -77.9418   27.2011  -71.2677 N.am      1 UNK        -0.4739 
      5 CA        -78.6141   26.6707  -70.0730 C.3       1 UNK         0.0864 
      6 C6        -79.7313   27.6220  -69.5751 C.3       11 UNK        -0.0881 
      7 S7        -81.1886   27.7481  -70.6754 S.3       11 UNK        -0.2682 
      8 C8        -81.0926   29.4593  -71.2849 C.3       11 UNK         0.0289 
      9 C9        -80.2724   29.5725  -72.5617 C.ar      11 UNK        -0.0687 
     10 C10       -80.7909   29.0868  -73.7653 C.ar      11 UNK        -0.0823 
     11 C11       -80.0977   29.2660  -74.9654 C.ar      11 UNK        -0.0830 
     12 C12       -78.8578   29.9155  -74.9499 C.ar      11 UNK        -0.1021 
     13 C13       -78.3194   30.3988  -73.7503 C.ar      11 UNK        -0.0753 
     14 C14       -79.0368   30.2253  -72.5600 C.ar      11 UNK        -0.0933 
     15 C15       -77.0079   31.1816  -73.7657 C.3       11 UNK         0.0166 
     16 S16       -75.8683   30.7397  -72.4095 S.3       11 UNK        -0.2615 
     17 C17       -74.6466   32.0948  -72.5326 C.3       11 UNK        -0.0865 
     18 CA        -73.1471   31.6688  -72.5118 C.3       10 UNK         0.0862 
     19 C         -72.5693   31.2235  -71.1328 C.2       10 UNK         0.5551 
     20 N         -73.3722   31.1500  -70.0794 N.am      10 UNK        -0.7319 
     21 O         -71.3652   31.0105  -71.0036 O.2       10 UNK        -0.5018 
     22 N         -72.7682   30.8305  -73.6638 N.am      10 UNK        -0.4509 
     23 C         -72.7192   29.4920  -73.7355 C.2       10 UNK         0.4899 
     24 O         -72.9692   28.7293  -72.8011 O.2       10 UNK        -0.4839 
     25 CA        -72.3509   28.9350  -75.1228 C.3       9 UNK         0.0222 
     26 CB        -70.9061   29.2909  -75.5344 C.3       9 UNK        -0.1966 
     27 N         -72.6169   27.4988  -75.2610 N.am      9 UNK        -0.4218 
     28 C         -71.9456   26.4545  -74.7495 C.2       9 UNK         0.5020 
     29 O         -70.9247   26.5413  -74.0656 O.2       9 UNK        -0.5274 
     30 CA        -72.4899   25.0575  -75.0988 C.3       8 UNK         0.0270 
     31 CB        -73.5855   24.6253  -74.1118 C.3       8 UNK        -0.1976 
     32 N         -73.0174   25.0204  -76.4654 N.am      8 UNK        -0.4313 
     33 C         -72.2926   24.7021  -77.5474 C.2       8 UNK         0.5041 
     34 O         -71.1408   24.2684  -77.4982 O.2       8 UNK        -0.5577 
     35 CA        -72.9487   24.9200  -78.9236 C.3       7 UNK         0.0284 
     36 CB        -73.6015   23.6254  -79.4333 C.3       7 UNK        -0.1958 
     37 N         -73.9308   26.0097  -78.9140 N.am      7 UNK        -0.4454 
     38 C         -73.5921   27.3076  -78.8506 C.2       7 UNK         0.5089 
     39 O         -72.4280   27.7066  -78.8839 O.2       7 UNK        -0.5125 
     40 CA        -74.7201   28.3479  -78.7056 C.3       6 UNK         0.0408 
     41 CB        -74.9955   29.0274  -80.0562 C.3       6 UNK        -0.1791 
     42 N         -75.9806   27.8294  -78.1661 N.am      6 UNK        -0.4762 
     43 C         -76.1456   27.2650  -76.9611 C.2       6 UNK         0.5007 
     44 O         -75.2178   27.0709  -76.1748 O.2       6 UNK        -0.5032 
     45 CA        -77.5630   26.7817  -76.5813 C.3       5 UNK         0.0783 
     46 C46       -78.6848   27.3285  -77.5020 C.3       11 UNK        -0.0857 
     47 S47       -80.3278   27.1187  -76.7408 S.3       11 UNK        -0.2512 
     48 C48       -80.7405   28.8321  -76.2785 C.3       11 UNK         0.0225 
     49 N         -77.6145   25.3191  -76.4429 N.am      5 UNK        -0.4615 
     50 C         -77.1574   24.4065  -77.3175 C.2       4 UNK         0.5053 
     51 O         -76.5871   24.6862  -78.3732 O.2       4 UNK        -0.5105 
     52 CA        -77.3600   22.9227  -76.9579 C.3       4 UNK         0.0263 
     53 CB        -76.1605   22.4061  -76.1462 C.3       4 UNK        -0.1981 
     54 N         -78.5873   22.6732  -76.2009 N.am      4 UNK        -0.4224 
     55 C         -79.8330   22.8846  -76.6487 C.2       3 UNK         0.4895 
     56 O         -80.0977   23.1696  -77.8173 O.2       3 UNK        -0.5091 
     57 CA        -80.9847   22.7718  -75.6269 C.3       3 UNK         0.0250 
     58 CB        -81.8330   21.5205  -75.9110 C.3       3 UNK        -0.1996 
     59 N         -80.5895   22.7652  -74.2092 N.am      3 UNK        -0.4254 
     60 C         -79.9118   23.7332  -73.5769 C.2       2 UNK         0.5004 
     61 O         -79.4427   24.7279  -74.1412 O.2       2 UNK        -0.5226 
     62 CA        -79.6715   23.5338  -72.0745 C.3       2 UNK         0.0269 
     63 CB        -78.5852   22.4687  -71.8270 C.3       2 UNK        -0.1926 
     64 N         -79.2428   24.8216  -71.5523 N.am      2 UNK        -0.4687 
     65 C         -79.1212   25.2214  -70.2825 C.2       1 UNK         0.5165 
     66 O         -79.3832   24.5121  -69.3098 O.2       1 UNK        -0.5079 
     67 H67       -76.3826   26.4238  -73.7752 H         1 UNK         0.0900 
     68 H68       -75.2604   27.5748  -73.0471 H         1 UNK         0.0900 
     69 H69       -76.9042   28.0731  -73.4387 H         1 UNK         0.0900 
     70 H70       -78.4894   27.8386  -71.8309 H         1 UNK         0.2959 
     71 H71       -77.8662   26.6135  -69.2785 H         1 UNK         0.1079 
     72 H72       -80.0870   27.2858  -68.5993 H         1 UNK         0.0837 
     73 H73       -79.3131   28.6140  -69.3991 H         1 UNK         0.0837 
     74 H74       -82.1062   29.8061  -71.4909 H         1 UNK         0.0685 
     75 H75       -80.7070   30.1180  -70.5053 H         1 UNK         0.0685 
     76 H76       -81.7563   28.5988  -73.7706 H         1 UNK         0.1434 
     77 H77       -78.3289   30.0783  -75.8788 H         1 UNK         0.1329 
     78 H78       -78.6452   30.6261  -71.6349 H         1 UNK         0.1335 
     79 H79       -77.2492   32.2433  -73.6982 H         1 UNK         0.0680 
     80 H80       -76.4854   31.0373  -74.7128 H         1 UNK         0.0680 
     81 H81       -74.8485   32.8149  -71.7379 H         1 UNK         0.1032 
     82 H82       -74.8306   32.6462  -73.4556 H         1 UNK         0.1032 
     83 H83       -72.6015   32.5951  -72.6969 H         1 UNK         0.0461 
     84 H84       -72.9911   30.8854  -69.1849 H         1 UNK         0.3453 
     85 H85       -74.3648   31.2906  -70.1860 H         1 UNK         0.3453 
     86 H86       -72.5167   31.3486  -74.4926 H         1 UNK         0.2984 
     87 H87       -73.0235   29.4121  -75.8372 H         1 UNK         0.0554 
     88 H88       -70.6520   28.8541  -76.5005 H         1 UNK         0.0847 
     89 H89       -70.1761   28.9404  -74.8043 H         1 UNK         0.0847 
     90 H90       -70.7741   30.3691  -75.6261 H         1 UNK         0.0847 
     91 H91       -73.5081   27.2908  -75.7074 H         1 UNK         0.3141 
     92 H92       -71.6633   24.3498  -75.0044 H         1 UNK         0.0743 
     93 H93       -74.4848   25.2287  -74.2184 H         1 UNK         0.0784 
     94 H94       -73.8616   23.5821  -74.2636 H         1 UNK         0.0784 
     95 H95       -73.2461   24.7239  -73.0796 H         1 UNK         0.0784 
     96 H96       -73.9404   25.4133  -76.6040 H         1 UNK         0.3213 
     97 H97       -72.1536   25.1866  -79.6238 H         1 UNK         0.0855 
     98 H98       -74.3883   23.2749  -78.7672 H         1 UNK         0.0814 
     99 H99       -72.8646   22.8250  -79.5124 H         1 UNK         0.0814 
    100 H100      -74.0374   23.7632  -80.4229 H         1 UNK         0.0814 
    101 H101      -74.9118   25.7474  -78.8718 H         1 UNK         0.3105 
    102 H102      -74.3620   29.1102  -78.0109 H         1 UNK         0.0547 
    103 H103      -74.0822   29.4561  -80.4716 H         1 UNK         0.0837 
    104 H104      -75.3864   28.3221  -80.7907 H         1 UNK         0.0837 
    105 H105      -75.7134   29.8414  -79.9543 H         1 UNK         0.0837 
    106 H106      -76.7828   27.8947  -78.7758 H         1 UNK         0.3020 
    107 H107      -77.7419   27.1866  -75.5853 H         1 UNK         0.1245 
    108 H108      -78.5411   28.3877  -77.7202 H         1 UNK         0.0781 
    109 H109      -78.6838   26.8126  -78.4640 H         1 UNK         0.0781 
    110 H110      -80.4673   29.5168  -77.0827 H         1 UNK         0.0836 
    111 H111      -81.8256   28.9069  -76.1917 H         1 UNK         0.0836 
    112 H112      -78.1161   24.9893  -75.6234 H         1 UNK         0.3022 
    113 H113      -77.4179   22.3603  -77.8921 H         1 UNK         0.0747 
    114 H114      -76.2330   21.3324  -75.9717 H         1 UNK         0.0793 
    115 H115      -75.2205   22.5836  -76.6692 H         1 UNK         0.0793 
    116 H116      -76.0893   22.8995  -75.1761 H         1 UNK         0.0793 
    117 H117      -78.4777   22.4311  -75.2278 H         1 UNK         0.3047 
    118 H118      -81.6141   23.6516  -75.7774 H         1 UNK         0.0822 
    119 H119      -82.7192   21.4874  -75.2768 H         1 UNK         0.0807 
    120 H120      -81.2656   20.6036  -75.7467 H         1 UNK         0.0807 
    121 H121      -82.1798   21.5076  -76.9454 H         1 UNK         0.0807 
    122 H122      -80.9087   21.9741  -73.6679 H         1 UNK         0.2946 
    123 H123      -80.6087   23.2458  -71.5937 H         1 UNK         0.1144 
    124 H124      -78.8788   21.5005  -72.2342 H         1 UNK         0.0793 
    125 H125      -78.4036   22.3237  -70.7620 H         1 UNK         0.0793 
    126 H126      -77.6374   22.7466  -72.2903 H         1 UNK         0.0793 
    127 H127      -79.0419   25.4910  -72.2866 H         1 UNK         0.2896 
@<TRIPOS>BOND
     1    1    2 1    
     2    1   67 1    
     3    1   68 1    
     4    1   69 1    
     5    2    3 2    
     6    2    4 am   BACKBONE|DICT|INTERRES
     7    4    5 1    
     8    4   70 1    
     9    5    6 1    
    10    5   65 1    
    11    5   71 1    
    12    6    7 1    
    13    6   72 1    
    14    6   73 1    
    15    7    8 1    
    16    8    9 1    
    17    8   74 1    
    18    8   75 1    
    19    9   10 ar   
    20    9   14 ar   
    21   10   11 ar   
    22   10   76 1    
    23   11   12 ar   
    24   11   48 1    
    25   12   13 ar   
    26   12   77 1    
    27   13   14 ar   
    28   13   15 1    
    29   14   78 1    
    30   15   16 1    
    31   15   79 1    
    32   15   80 1    
    33   16   17 1    
    34   17   18 1    
    35   17   81 1    
    36   17   82 1    
    37   18   19 1    
    38   18   22 1    
    39   18   83 1    
    40   19   20 am   BACKBONE|DICT|INTERRES
    41   19   21 2    
    42   20   84 1    
    43   20   85 1    
    44   22   23 am   BACKBONE|DICT|INTERRES
    45   22   86 1    
    46   23   24 2    
    47   23   25 1    
    48   25   26 1    
    49   25   27 1    
    50   25   87 1    
    51   26   88 1    
    52   26   89 1    
    53   26   90 1    
    54   27   28 am   BACKBONE|DICT|INTERRES
    55   27   91 1    
    56   28   29 2    
    57   28   30 1    
    58   30   31 1    
    59   30   32 1    
    60   30   92 1    
    61   31   93 1    
    62   31   94 1    
    63   31   95 1    
    64   32   33 am   BACKBONE|DICT|INTERRES
    65   32   96 1    
    66   33   34 2    
    67   33   35 1    
    68   35   36 1    
    69   35   37 1    
    70   35   97 1    
    71   36   98 1    
    72   36   99 1    
    73   36  100 1    
    74   37   38 am   BACKBONE|DICT|INTERRES
    75   37  101 1    
    76   38   39 2    
    77   38   40 1    
    78   40   41 1    
    79   40   42 1    
    80   40  102 1    
    81   41  103 1    
    82   41  104 1    
    83   41  105 1    
    84   42   43 am   BACKBONE|DICT|INTERRES
    85   42  106 1    
    86   43   44 2    
    87   43   45 1    
    88   45   46 1    
    89   45   49 1    
    90   45  107 1    
    91   46   47 1    
    92   46  108 1    
    93   46  109 1    
    94   47   48 1    
    95   48  110 1    
    96   48  111 1    
    97   49   50 am   BACKBONE|DICT|INTERRES
    98   49  112 1    
    99   50   51 2    
   100   50   52 1    
   101   52   53 1    
   102   52   54 1    
   103   52  113 1    
   104   53  114 1    
   105   53  115 1    
   106   53  116 1    
   107   54   55 am   BACKBONE|DICT|INTERRES
   108   54  117 1    
   109   55   56 2    
   110   55   57 1    
   111   57   58 1    
   112   57   59 1    
   113   57  118 1    
   114   58  119 1    
   115   58  120 1    
   116   58  121 1    
   117   59   60 am   BACKBONE|DICT|INTERRES
   118   59  122 1    
   119   60   61 2    
   120   60   62 1    
   121   62   63 1    
   122   62   64 1    
   123   62  123 1    
   124   63  124 1    
   125   63  125 1    
   126   63  126 1    
   127   64   65 am   BACKBONE|DICT|INTERRES
   128   64  127 1    
   129   65   66 2    
@<TRIPOS>SUBSTRUCTURE
     1 UNK         1 GROUP             0       ****    0 ROOT    
