@<TRIPOS>MOLECULE
3R135
127   129    1
SMALL
USER_CHARGES


@<TRIPOS>ATOM
      1 CA        -80.8950   29.1788  -70.9883 C.3       0 UNK        -0.1998 
      2 C         -81.4879   28.7954  -72.3357 C.2       0 UNK         0.4909 
      3 O         -82.6947   28.5741  -72.4361 O.2       0 UNK        -0.5240 
      4 N         -80.6442   28.7208  -73.3727 N.am      1 UNK        -0.4739 
      5 CA        -81.0208   28.4112  -74.7602 C.3       1 UNK         0.0864 
      6 C6        -79.8685   28.7066  -75.7535 C.3       11 UNK        -0.0881 
      7 S7        -79.1986   30.4008  -75.6113 S.3       11 UNK        -0.2682 
      8 C8        -77.4570   30.1069  -75.1594 C.3       11 UNK         0.0289 
      9 C9        -77.2736   29.8191  -73.6762 C.ar      11 UNK        -0.0687 
     10 C10       -77.4772   28.5332  -73.1657 C.ar      11 UNK        -0.0823 
     11 C11       -77.2944   28.2684  -71.8056 C.ar      11 UNK        -0.0830 
     12 C12       -76.8681   29.2956  -70.9594 C.ar      11 UNK        -0.1021 
     13 C13       -76.6439   30.5809  -71.4597 C.ar      11 UNK        -0.0753 
     14 C14       -76.8625   30.8400  -72.8152 C.ar      11 UNK        -0.0933 
     15 C15       -76.1767   31.6938  -70.5340 C.3       11 UNK         0.0166 
     16 S16       -74.4717   32.2216  -70.8956 S.3       11 UNK        -0.2615 
     17 C17       -73.4948   30.7459  -70.4394 C.3       11 UNK        -0.0865 
     18 CA        -72.4473   30.3745  -71.5261 C.3       10 UNK         0.0862 
     19 C         -71.4007   29.3319  -71.0331 C.2       10 UNK         0.5551 
     20 N         -70.8190   28.5188  -71.9077 N.am      10 UNK        -0.7319 
     21 O         -71.0948   29.2617  -69.8452 O.2       10 UNK        -0.5018 
     22 N         -73.0832   29.9568  -72.7871 N.am      10 UNK        -0.4509 
     23 C         -72.9381   30.5673  -73.9677 C.2       10 UNK         0.4899 
     24 O         -72.3315   31.6284  -74.1279 O.2       10 UNK        -0.4839 
     25 CA        -73.5514   29.8368  -75.1796 C.3       9 UNK         0.0222 
     26 CB        -73.2308   30.5240  -76.5222 C.3       9 UNK        -0.1966 
     27 N         -73.2018   28.4119  -75.2566 N.am      9 UNK        -0.4218 
     28 C         -71.9807   27.8553  -75.2064 C.2       9 UNK         0.5020 
     29 O         -70.9427   28.4739  -74.9686 O.2       9 UNK        -0.5274 
     30 CA        -71.9024   26.3393  -75.4558 C.3       8 UNK         0.0270 
     31 CB        -72.2477   25.5610  -74.1753 C.3       8 UNK        -0.1976 
     32 N         -72.7641   25.9012  -76.5587 N.am      8 UNK        -0.4313 
     33 C         -72.5552   26.1939  -77.8515 C.2       8 UNK         0.5041 
     34 O         -71.5784   26.8217  -78.2622 O.2       8 UNK        -0.5577 
     35 CA        -73.6067   25.7070  -78.8627 C.3       7 UNK         0.0284 
     36 CB        -73.2580   24.3008  -79.3779 C.3       7 UNK        -0.1958 
     37 N         -74.9552   25.7062  -78.2906 N.am      7 UNK        -0.4454 
     38 C         -75.7532   26.7839  -78.2586 C.2       7 UNK         0.5089 
     39 O         -75.4678   27.8610  -78.7819 O.2       7 UNK        -0.5125 
     40 CA        -77.0916   26.6556  -77.5049 C.3       6 UNK         0.0408 
     41 CB        -78.2082   26.2069  -78.4598 C.3       6 UNK        -0.1791 
     42 N         -77.0589   25.7520  -76.3514 N.am      6 UNK        -0.4762 
     43 C         -76.2152   25.8198  -75.3113 C.2       6 UNK         0.5007 
     44 O         -75.4135   26.7369  -75.1477 O.2       6 UNK        -0.5032 
     45 CA        -76.2081   24.6186  -74.3410 C.3       5 UNK         0.0783 
     46 C46       -77.1584   24.8304  -73.1384 C.3       11 UNK        -0.0857 
     47 S47       -76.3306   25.6651  -71.7440 S.3       11 UNK        -0.2512 
     48 C48       -77.5800   26.8860  -71.2367 C.3       11 UNK         0.0225 
     49 N         -76.4838   23.3521  -75.0259 N.am      5 UNK        -0.4615 
     50 C         -75.7597   22.8252  -76.0202 C.2       4 UNK         0.5053 
     51 O         -74.7245   23.3415  -76.4416 O.2       4 UNK        -0.5105 
     52 CA        -76.3074   21.5599  -76.7096 C.3       4 UNK         0.0263 
     53 CB        -75.8331   20.2819  -75.9912 C.3       4 UNK        -0.1981 
     54 N         -77.7677   21.5768  -76.9126 N.am      4 UNK        -0.4224 
     55 C         -78.7376   21.5298  -75.9877 C.2       3 UNK         0.4895 
     56 O         -78.5388   21.3482  -74.7840 O.2       3 UNK        -0.5091 
     57 CA        -80.1704   21.7955  -76.4827 C.3       3 UNK         0.0250 
     58 CB        -80.9380   20.4743  -76.6478 C.3       3 UNK        -0.1996 
     59 N         -80.9062   22.6758  -75.5669 N.am      3 UNK        -0.4254 
     60 C         -80.5271   23.9161  -75.2248 C.2       2 UNK         0.5004 
     61 O         -79.5388   24.4835  -75.6987 O.2       2 UNK        -0.5226 
     62 CA        -81.3697   24.6111  -74.1391 C.3       2 UNK         0.0269 
     63 CB        -81.0910   23.9926  -72.7580 C.3       2 UNK        -0.1926 
     64 N         -81.0977   26.0483  -74.0648 N.am      2 UNK        -0.4687 
     65 C         -81.5131   26.9590  -74.9561 C.2       1 UNK         0.5165 
     66 O         -82.2488   26.6936  -75.9082 O.2       1 UNK        -0.5079 
     67 H67       -80.8572   28.3096  -70.3325 H         1 UNK         0.0900 
     68 H68       -79.8857   29.5778  -71.0882 H         1 UNK         0.0900 
     69 H69       -81.5092   29.9412  -70.5100 H         1 UNK         0.0900 
     70 H70       -79.6739   28.9702  -73.2357 H         1 UNK         0.2959 
     71 H71       -81.8602   29.0614  -75.0170 H         1 UNK         0.1079 
     72 H72       -79.0668   27.9790  -75.6325 H         1 UNK         0.0837 
     73 H73       -80.2202   28.5834  -76.7799 H         1 UNK         0.0837 
     74 H74       -77.0358   29.2954  -75.7492 H         1 UNK         0.0685 
     75 H75       -76.8846   30.9940  -75.4353 H         1 UNK         0.0685 
     76 H76       -77.7788   27.7344  -73.8248 H         1 UNK         0.1434 
     77 H77       -76.7147   29.0965  -69.9075 H         1 UNK         0.1329 
     78 H78       -76.6919   31.8360  -73.2007 H         1 UNK         0.1335 
     79 H79       -76.8413   32.5516  -70.6455 H         1 UNK         0.0680 
     80 H80       -76.2435   31.3892  -69.4883 H         1 UNK         0.0680 
     81 H81       -73.0045   30.9746  -69.4914 H         1 UNK         0.1032 
     82 H82       -74.1496   29.8970  -70.2404 H         1 UNK         0.1032 
     83 H83       -71.8510   31.2714  -71.7019 H         1 UNK         0.0461 
     84 H84       -70.1372   27.8544  -71.5782 H         1 UNK         0.3453 
     85 H85       -70.9925   28.6143  -72.9011 H         1 UNK         0.3453 
     86 H86       -73.5848   29.0810  -72.7553 H         1 UNK         0.2984 
     87 H87       -74.6307   29.8744  -75.0395 H         1 UNK         0.0554 
     88 H88       -73.7284   30.0210  -77.3518 H         1 UNK         0.0847 
     89 H89       -72.1593   30.5259  -76.7261 H         1 UNK         0.0847 
     90 H90       -73.5675   31.5614  -76.5237 H         1 UNK         0.0847 
     91 H91       -73.9969   27.7794  -75.3567 H         1 UNK         0.3141 
     92 H92       -70.8722   26.0991  -75.7275 H         1 UNK         0.0743 
     93 H93       -73.2312   25.8273  -73.7887 H         1 UNK         0.0784 
     94 H94       -72.2293   24.4840  -74.3435 H         1 UNK         0.0784 
     95 H95       -71.5259   25.7781  -73.3868 H         1 UNK         0.0784 
     96 H96       -73.5792   25.3528  -76.3184 H         1 UNK         0.3213 
     97 H97       -73.5827   26.3870  -79.7175 H         1 UNK         0.0855 
     98 H98       -73.2136   23.5678  -78.5722 H         1 UNK         0.0814 
     99 H99       -72.2835   24.3000  -79.8680 H         1 UNK         0.0814 
    100 H100      -73.9878   23.9532  -80.1091 H         1 UNK         0.0814 
    101 H101      -75.2409   24.8663  -77.8018 H         1 UNK         0.3105 
    102 H102      -77.3470   27.6485  -77.1428 H         1 UNK         0.0547 
    103 H103      -79.1799   26.2145  -77.9649 H         1 UNK         0.0837 
    104 H104      -78.2790   26.8735  -79.3204 H         1 UNK         0.0837 
    105 H105      -78.0339   25.1994  -78.8392 H         1 UNK         0.0837 
    106 H106      -77.7705   25.0256  -76.3272 H         1 UNK         0.3020 
    107 H107      -75.1878   24.5248  -73.9648 H         1 UNK         0.1245 
    108 H108      -77.4984   23.8680  -72.7519 H         1 UNK         0.0781 
    109 H109      -78.0656   25.3582  -73.4364 H         1 UNK         0.0781 
    110 H110      -77.5892   26.9234  -70.1463 H         1 UNK         0.0836 
    111 H111      -78.5801   26.5613  -71.5257 H         1 UNK         0.0836 
    112 H112      -77.3207   22.8487  -74.7464 H         1 UNK         0.3022 
    113 H113      -75.8747   21.5459  -77.7114 H         1 UNK         0.0747 
    114 H114      -76.1873   19.3860  -76.5008 H         1 UNK         0.0793 
    115 H115      -74.7436   20.2334  -75.9696 H         1 UNK         0.0793 
    116 H116      -76.1760   20.2380  -74.9572 H         1 UNK         0.0793 
    117 H117      -78.0520   21.7411  -77.8689 H         1 UNK         0.3047 
    118 H118      -80.1237   22.2972  -77.4516 H         1 UNK         0.0822 
    119 H119      -81.0329   19.9423  -75.7000 H         1 UNK         0.0807 
    120 H120      -80.4261   19.8089  -77.3444 H         1 UNK         0.0807 
    121 H121      -81.9408   20.6427  -77.0411 H         1 UNK         0.0807 
    122 H122      -81.7076   22.2700  -75.1063 H         1 UNK         0.2946 
    123 H123      -82.4248   24.4713  -74.3858 H         1 UNK         0.1144 
    124 H124      -80.0448   24.0971  -72.4696 H         1 UNK         0.0793 
    125 H125      -81.6997   24.4611  -71.9843 H         1 UNK         0.0793 
    126 H126      -81.3241   22.9271  -72.7462 H         1 UNK         0.0793 
    127 H127      -80.4975   26.3613  -73.3182 H         1 UNK         0.2896 
@<TRIPOS>BOND
     1    1    2 1    
     2    1   67 1    
     3    1   68 1    
     4    1   69 1    
     5    2    3 2    
     6    2    4 am   BACKBONE|DICT|INTERRES
     7    4    5 1    
     8    4   70 1    
     9    5    6 1    
    10    5   65 1    
    11    5   71 1    
    12    6    7 1    
    13    6   72 1    
    14    6   73 1    
    15    7    8 1    
    16    8    9 1    
    17    8   74 1    
    18    8   75 1    
    19    9   10 ar   
    20    9   14 ar   
    21   10   11 ar   
    22   10   76 1    
    23   11   12 ar   
    24   11   48 1    
    25   12   13 ar   
    26   12   77 1    
    27   13   14 ar   
    28   13   15 1    
    29   14   78 1    
    30   15   16 1    
    31   15   79 1    
    32   15   80 1    
    33   16   17 1    
    34   17   18 1    
    35   17   81 1    
    36   17   82 1    
    37   18   19 1    
    38   18   22 1    
    39   18   83 1    
    40   19   20 am   BACKBONE|DICT|INTERRES
    41   19   21 2    
    42   20   84 1    
    43   20   85 1    
    44   22   23 am   BACKBONE|DICT|INTERRES
    45   22   86 1    
    46   23   24 2    
    47   23   25 1    
    48   25   26 1    
    49   25   27 1    
    50   25   87 1    
    51   26   88 1    
    52   26   89 1    
    53   26   90 1    
    54   27   28 am   BACKBONE|DICT|INTERRES
    55   27   91 1    
    56   28   29 2    
    57   28   30 1    
    58   30   31 1    
    59   30   32 1    
    60   30   92 1    
    61   31   93 1    
    62   31   94 1    
    63   31   95 1    
    64   32   33 am   BACKBONE|DICT|INTERRES
    65   32   96 1    
    66   33   34 2    
    67   33   35 1    
    68   35   36 1    
    69   35   37 1    
    70   35   97 1    
    71   36   98 1    
    72   36   99 1    
    73   36  100 1    
    74   37   38 am   BACKBONE|DICT|INTERRES
    75   37  101 1    
    76   38   39 2    
    77   38   40 1    
    78   40   41 1    
    79   40   42 1    
    80   40  102 1    
    81   41  103 1    
    82   41  104 1    
    83   41  105 1    
    84   42   43 am   BACKBONE|DICT|INTERRES
    85   42  106 1    
    86   43   44 2    
    87   43   45 1    
    88   45   46 1    
    89   45   49 1    
    90   45  107 1    
    91   46   47 1    
    92   46  108 1    
    93   46  109 1    
    94   47   48 1    
    95   48  110 1    
    96   48  111 1    
    97   49   50 am   BACKBONE|DICT|INTERRES
    98   49  112 1    
    99   50   51 2    
   100   50   52 1    
   101   52   53 1    
   102   52   54 1    
   103   52  113 1    
   104   53  114 1    
   105   53  115 1    
   106   53  116 1    
   107   54   55 am   BACKBONE|DICT|INTERRES
   108   54  117 1    
   109   55   56 2    
   110   55   57 1    
   111   57   58 1    
   112   57   59 1    
   113   57  118 1    
   114   58  119 1    
   115   58  120 1    
   116   58  121 1    
   117   59   60 am   BACKBONE|DICT|INTERRES
   118   59  122 1    
   119   60   61 2    
   120   60   62 1    
   121   62   63 1    
   122   62   64 1    
   123   62  123 1    
   124   63  124 1    
   125   63  125 1    
   126   63  126 1    
   127   64   65 am   BACKBONE|DICT|INTERRES
   128   64  127 1    
   129   65   66 2    
@<TRIPOS>SUBSTRUCTURE
     1 UNK         1 GROUP             0       ****    0 ROOT    
