@<TRIPOS>MOLECULE
3R135
127   129    1
SMALL
USER_CHARGES


@<TRIPOS>ATOM
      1 CA        -80.1263   21.7319  -71.3683 C.3       0 UNK        -0.1998 
      2 C         -79.8953   23.1918  -71.7262 C.2       0 UNK         0.4909 
      3 O         -78.8575   23.5178  -72.3007 O.2       0 UNK        -0.5240 
      4 N         -80.8635   24.0626  -71.4051 N.am      1 UNK        -0.4739 
      5 CA        -80.8534   25.5155  -71.6324 C.3       1 UNK         0.0864 
      6 C6        -79.8935   26.2640  -70.6654 C.3       11 UNK        -0.0881 
      7 S7        -80.5344   27.9100  -70.2098 S.3       11 UNK        -0.2682 
      8 C8        -79.0027   28.8972  -70.0692 C.3       11 UNK         0.0289 
      9 C9        -78.5427   29.6157  -71.3410 C.ar      11 UNK        -0.0687 
     10 C10       -79.4056   29.8970  -72.4104 C.ar      11 UNK        -0.0823 
     11 C11       -78.9591   30.6250  -73.5194 C.ar      11 UNK        -0.0830 
     12 C12       -77.6367   31.0733  -73.5572 C.ar      11 UNK        -0.1021 
     13 C13       -76.7608   30.7940  -72.5070 C.ar      11 UNK        -0.0753 
     14 C14       -77.2209   30.0706  -71.4027 C.ar      11 UNK        -0.0933 
     15 C15       -75.3254   31.2928  -72.5684 C.3       11 UNK         0.0166 
     16 S16       -74.1951   29.9791  -73.1197 S.3       11 UNK        -0.2615 
     17 C17       -73.7712   29.1624  -71.5387 C.3       11 UNK        -0.0865 
     18 CA        -72.2384   28.9300  -71.3993 C.3       10 UNK         0.0862 
     19 C         -71.8191   28.4641  -69.9705 C.2       10 UNK         0.5551 
     20 N         -70.7695   27.6652  -69.8210 N.am      10 UNK        -0.7319 
     21 O         -72.4284   28.8586  -68.9790 O.2       10 UNK        -0.5018 
     22 N         -71.6990   28.1210  -72.5078 N.am      10 UNK        -0.4509 
     23 C         -72.0020   26.8427  -72.7649 C.2       10 UNK         0.4899 
     24 O         -72.6951   26.1323  -72.0359 O.2       10 UNK        -0.4839 
     25 CA        -71.4744   26.2965  -74.0959 C.3       9 UNK         0.0222 
     26 CB        -71.6821   24.7773  -74.2421 C.3       9 UNK        -0.1966 
     27 N         -72.1752   26.9738  -75.1829 N.am      9 UNK        -0.4218 
     28 C         -71.6882   27.9664  -75.9374 C.2       9 UNK         0.5020 
     29 O         -70.5780   28.4752  -75.7677 O.2       9 UNK        -0.5274 
     30 CA        -72.6044   28.4478  -77.0820 C.3       8 UNK         0.0270 
     31 CB        -71.8775   29.3233  -78.1245 C.3       8 UNK        -0.1976 
     32 N         -73.3072   27.3256  -77.7190 N.am      8 UNK        -0.4313 
     33 C         -72.7623   26.2698  -78.3442 C.2       8 UNK         0.5041 
     34 O         -71.5686   26.1769  -78.6337 O.2       8 UNK        -0.5577 
     35 CA        -73.6920   25.0839  -78.6594 C.3       7 UNK         0.0284 
     36 CB        -73.4740   23.9597  -77.6329 C.3       7 UNK        -0.1958 
     37 N         -75.1132   25.4385  -78.6803 N.am      7 UNK        -0.4454 
     38 C         -75.7030   26.1232  -79.6692 C.2       7 UNK         0.5089 
     39 O         -75.1186   26.5023  -80.6847 O.2       7 UNK        -0.5125 
     40 CA        -77.1935   26.4536  -79.4907 C.3       6 UNK         0.0408 
     41 CB        -78.0635   25.2537  -79.8961 C.3       6 UNK        -0.1791 
     42 N         -77.5374   26.8697  -78.1289 N.am      6 UNK        -0.4762 
     43 C         -77.0879   27.9810  -77.5251 C.2       6 UNK         0.5007 
     44 O         -76.3040   28.7756  -78.0451 O.2       6 UNK        -0.5032 
     45 CA        -77.5753   28.2236  -76.0825 C.3       5 UNK         0.0783 
     46 C46       -79.0666   28.6539  -76.0603 C.3       11 UNK        -0.0857 
     47 S47       -79.2763   30.4470  -76.2967 S.3       11 UNK        -0.2512 
     48 C48       -79.9146   30.9526  -74.6627 C.3       11 UNK         0.0225 
     49 N         -77.3298   27.0648  -75.2206 N.am      5 UNK        -0.4615 
     50 C         -76.1327   26.5095  -74.9801 C.2       4 UNK         0.5053 
     51 O         -75.0649   26.9376  -75.4161 O.2       4 UNK        -0.5105 
     52 CA        -76.1291   25.2135  -74.1575 C.3       4 UNK         0.0263 
     53 CB        -76.1946   25.5319  -72.6580 C.3       4 UNK        -0.1981 
     54 N         -77.2249   24.3151  -74.5287 N.am      4 UNK        -0.4224 
     55 C         -77.3802   23.7737  -75.7470 C.2       3 UNK         0.4895 
     56 O         -76.5832   23.9222  -76.6737 O.2       3 UNK        -0.5091 
     57 CA        -78.6731   22.9827  -75.9932 C.3       3 UNK         0.0250 
     58 CB        -78.6160   21.5983  -75.3275 C.3       3 UNK        -0.1996 
     59 N         -79.8562   23.7157  -75.5378 N.am      3 UNK        -0.4254 
     60 C         -80.2976   24.8547  -76.0919 C.2       2 UNK         0.5004 
     61 O         -79.7786   25.3860  -77.0728 O.2       2 UNK        -0.5226 
     62 CA        -81.5061   25.5350  -75.4275 C.3       2 UNK         0.0269 
     63 CB        -82.8176   25.0254  -76.0453 C.3       2 UNK        -0.1926 
     64 N         -81.5494   25.3601  -73.9725 N.am      2 UNK        -0.4687 
     65 C         -80.6389   25.8583  -73.1231 C.2       1 UNK         0.5165 
     66 O         -79.6517   26.4970  -73.4892 O.2       1 UNK        -0.5079 
     67 H67       -79.3120   21.3681  -70.7423 H         1 UNK         0.0900 
     68 H68       -81.0608   21.5864  -70.8269 H         1 UNK         0.0900 
     69 H69       -80.1586   21.1242  -72.2721 H         1 UNK         0.0900 
     70 H70       -81.6947   23.7112  -70.9493 H         1 UNK         0.2959 
     71 H71       -81.8708   25.8366  -71.4016 H         1 UNK         0.1079 
     72 H72       -79.7913   25.7050  -69.7340 H         1 UNK         0.0837 
     73 H73       -78.8836   26.3397  -71.0670 H         1 UNK         0.0837 
     74 H74       -79.1684   29.6568  -69.3043 H         1 UNK         0.0685 
     75 H75       -78.2033   28.2577  -69.6916 H         1 UNK         0.0685 
     76 H76       -80.4341   29.5678  -72.3782 H         1 UNK         0.1434 
     77 H77       -77.2889   31.6397  -74.4104 H         1 UNK         0.1329 
     78 H78       -76.5491   29.8716  -70.5796 H         1 UNK         0.1335 
     79 H79       -75.0163   31.6911  -71.6012 H         1 UNK         0.0680 
     80 H80       -75.2496   32.1251  -73.2698 H         1 UNK         0.0680 
     81 H81       -74.1318   29.7754  -70.7121 H         1 UNK         0.1032 
     82 H82       -74.3173   28.2208  -71.4702 H         1 UNK         0.1032 
     83 H83       -71.7615   29.9050  -71.5053 H         1 UNK         0.0461 
     84 H84       -70.4945   27.3754  -68.8959 H         1 UNK         0.3453 
     85 H85       -70.2596   27.3407  -70.6269 H         1 UNK         0.3453 
     86 H86       -71.1261   28.6186  -73.1753 H         1 UNK         0.2984 
     87 H87       -70.4021   26.4969  -74.1441 H         1 UNK         0.0554 
     88 H88       -71.1711   24.2359  -73.4450 H         1 UNK         0.0847 
     89 H89       -71.2825   24.4139  -75.1889 H         1 UNK         0.0847 
     90 H90       -72.7367   24.5039  -74.1978 H         1 UNK         0.0847 
     91 H91       -73.1539   26.7295  -75.3156 H         1 UNK         0.3141 
     92 H92       -73.3767   29.0614  -76.6146 H         1 UNK         0.0743 
     93 H93       -71.4726   30.2237  -77.6612 H         1 UNK         0.0784 
     94 H94       -71.0445   28.7954  -78.5893 H         1 UNK         0.0784 
     95 H95       -72.5569   29.6424  -78.9148 H         1 UNK         0.0784 
     96 H96       -74.2952   27.2703  -77.4997 H         1 UNK         0.3213 
     97 H97       -73.4161   24.7044  -79.6458 H         1 UNK         0.0855 
     98 H98       -73.7493   24.2769  -76.6264 H         1 UNK         0.0814 
     99 H99       -72.4283   23.6506  -77.6043 H         1 UNK         0.0814 
    100 H100      -74.0663   23.0780  -77.8783 H         1 UNK         0.0814 
    101 H101      -75.6827   25.1045  -77.9052 H         1 UNK         0.3105 
    102 H102      -77.4306   27.2845  -80.1583 H         1 UNK         0.0547 
    103 H103      -79.1236   25.5062  -79.8688 H         1 UNK         0.0837 
    104 H104      -77.8338   24.9276  -80.9113 H         1 UNK         0.0837 
    105 H105      -77.9077   24.4009  -79.2340 H         1 UNK         0.0837 
    106 H106      -78.2042   26.2806  -77.6331 H         1 UNK         0.3020 
    107 H107      -76.9687   29.0311  -75.6657 H         1 UNK         0.1245 
    108 H108      -79.5214   28.3939  -75.1065 H         1 UNK         0.0781 
    109 H109      -79.6599   28.1266  -76.8094 H         1 UNK         0.0781 
    110 H110      -80.8858   30.4808  -74.5055 H         1 UNK         0.0836 
    111 H111      -80.0948   32.0283  -74.6728 H         1 UNK         0.0836 
    112 H112      -78.1430   26.6717  -74.7556 H         1 UNK         0.3022 
    113 H113      -75.1919   24.6910  -74.3570 H         1 UNK         0.0747 
    114 H114      -75.3527   26.1546  -72.3560 H         1 UNK         0.0793 
    115 H115      -77.1043   26.0754  -72.4078 H         1 UNK         0.0793 
    116 H116      -76.1647   24.6249  -72.0542 H         1 UNK         0.0793 
    117 H117      -77.9179   24.1213  -73.8074 H         1 UNK         0.3047 
    118 H118      -78.7685   22.8342  -77.0712 H         1 UNK         0.0822 
    119 H119      -77.7631   21.0271  -75.6968 H         1 UNK         0.0807 
    120 H120      -79.5121   21.0164  -75.5434 H         1 UNK         0.0807 
    121 H121      -78.5131   21.6684  -74.2447 H         1 UNK         0.0807 
    122 H122      -80.3228   23.3716  -74.7120 H         1 UNK         0.2946 
    123 H123      -81.4260   26.6050  -75.6320 H         1 UNK         0.1144 
    124 H124      -83.6785   25.5663  -75.6518 H         1 UNK         0.0793 
    125 H125      -82.9704   23.9627  -75.8530 H         1 UNK         0.0793 
    126 H126      -82.8178   25.1641  -77.1276 H         1 UNK         0.0793 
    127 H127      -82.3174   24.8203  -73.5994 H         1 UNK         0.2896 
@<TRIPOS>BOND
     1    1    2 1    
     2    1   67 1    
     3    1   68 1    
     4    1   69 1    
     5    2    3 2    
     6    2    4 am   BACKBONE|DICT|INTERRES
     7    4    5 1    
     8    4   70 1    
     9    5    6 1    
    10    5   65 1    
    11    5   71 1    
    12    6    7 1    
    13    6   72 1    
    14    6   73 1    
    15    7    8 1    
    16    8    9 1    
    17    8   74 1    
    18    8   75 1    
    19    9   10 ar   
    20    9   14 ar   
    21   10   11 ar   
    22   10   76 1    
    23   11   12 ar   
    24   11   48 1    
    25   12   13 ar   
    26   12   77 1    
    27   13   14 ar   
    28   13   15 1    
    29   14   78 1    
    30   15   16 1    
    31   15   79 1    
    32   15   80 1    
    33   16   17 1    
    34   17   18 1    
    35   17   81 1    
    36   17   82 1    
    37   18   19 1    
    38   18   22 1    
    39   18   83 1    
    40   19   20 am   BACKBONE|DICT|INTERRES
    41   19   21 2    
    42   20   84 1    
    43   20   85 1    
    44   22   23 am   BACKBONE|DICT|INTERRES
    45   22   86 1    
    46   23   24 2    
    47   23   25 1    
    48   25   26 1    
    49   25   27 1    
    50   25   87 1    
    51   26   88 1    
    52   26   89 1    
    53   26   90 1    
    54   27   28 am   BACKBONE|DICT|INTERRES
    55   27   91 1    
    56   28   29 2    
    57   28   30 1    
    58   30   31 1    
    59   30   32 1    
    60   30   92 1    
    61   31   93 1    
    62   31   94 1    
    63   31   95 1    
    64   32   33 am   BACKBONE|DICT|INTERRES
    65   32   96 1    
    66   33   34 2    
    67   33   35 1    
    68   35   36 1    
    69   35   37 1    
    70   35   97 1    
    71   36   98 1    
    72   36   99 1    
    73   36  100 1    
    74   37   38 am   BACKBONE|DICT|INTERRES
    75   37  101 1    
    76   38   39 2    
    77   38   40 1    
    78   40   41 1    
    79   40   42 1    
    80   40  102 1    
    81   41  103 1    
    82   41  104 1    
    83   41  105 1    
    84   42   43 am   BACKBONE|DICT|INTERRES
    85   42  106 1    
    86   43   44 2    
    87   43   45 1    
    88   45   46 1    
    89   45   49 1    
    90   45  107 1    
    91   46   47 1    
    92   46  108 1    
    93   46  109 1    
    94   47   48 1    
    95   48  110 1    
    96   48  111 1    
    97   49   50 am   BACKBONE|DICT|INTERRES
    98   49  112 1    
    99   50   51 2    
   100   50   52 1    
   101   52   53 1    
   102   52   54 1    
   103   52  113 1    
   104   53  114 1    
   105   53  115 1    
   106   53  116 1    
   107   54   55 am   BACKBONE|DICT|INTERRES
   108   54  117 1    
   109   55   56 2    
   110   55   57 1    
   111   57   58 1    
   112   57   59 1    
   113   57  118 1    
   114   58  119 1    
   115   58  120 1    
   116   58  121 1    
   117   59   60 am   BACKBONE|DICT|INTERRES
   118   59  122 1    
   119   60   61 2    
   120   60   62 1    
   121   62   63 1    
   122   62   64 1    
   123   62  123 1    
   124   63  124 1    
   125   63  125 1    
   126   63  126 1    
   127   64   65 am   BACKBONE|DICT|INTERRES
   128   64  127 1    
   129   65   66 2    
@<TRIPOS>SUBSTRUCTURE
     1 UNK         1 GROUP             0       ****    0 ROOT    
