@<TRIPOS>MOLECULE
3R135
127   129    1
SMALL
USER_CHARGES


@<TRIPOS>ATOM
      1 CA        -83.5032   23.0104  -70.2395 C.3       0 UNK        -0.1998 
      2 C         -83.3890   24.0189  -71.3728 C.2       0 UNK         0.4909 
      3 O         -84.3125   24.1426  -72.1774 O.2       0 UNK        -0.5240 
      4 N         -82.2592   24.7364  -71.4470 N.am      1 UNK        -0.4739 
      5 CA        -81.9774   25.7536  -72.4721 C.3       1 UNK         0.0864 
      6 C6        -80.9725   26.8193  -71.9484 C.3       11 UNK        -0.0881 
      7 S7        -81.4661   28.5240  -72.3895 S.3       11 UNK        -0.2682 
      8 C8        -80.2421   28.9617  -73.6700 C.3       11 UNK         0.0289 
      9 C9        -78.9806   29.6401  -73.1339 C.ar      11 UNK        -0.0687 
     10 C10       -78.4268   30.7193  -73.8327 C.ar      11 UNK        -0.0823 
     11 C11       -77.2649   31.3503  -73.3744 C.ar      11 UNK        -0.0830 
     12 C12       -76.6519   30.8945  -72.2021 C.ar      11 UNK        -0.1021 
     13 C13       -77.1985   29.8242  -71.4878 C.ar      11 UNK        -0.0753 
     14 C14       -78.3498   29.1952  -71.9665 C.ar      11 UNK        -0.0933 
     15 C15       -76.5948   29.3763  -70.1640 C.3       11 UNK         0.0166 
     16 S16       -75.5000   27.9354  -70.3526 S.3       11 UNK        -0.2615 
     17 C17       -73.9510   28.7209  -70.9137 C.3       11 UNK        -0.0865 
     18 CA        -73.5825   28.3502  -72.3780 C.3       10 UNK         0.0862 
     19 C         -72.3905   29.2033  -72.9200 C.2       10 UNK         0.5551 
     20 N         -71.5594   28.6876  -73.8191 N.am      10 UNK        -0.7319 
     21 O         -72.2393   30.3666  -72.5564 O.2       10 UNK        -0.5018 
     22 N         -73.4358   26.8969  -72.5818 N.am      10 UNK        -0.4509 
     23 C         -72.4534   26.1436  -72.0705 C.2       10 UNK         0.4899 
     24 O         -71.5878   26.5646  -71.3018 O.2       10 UNK        -0.4839 
     25 CA        -72.3998   24.6670  -72.4899 C.3       9 UNK         0.0222 
     26 CB        -73.2241   23.8187  -71.5078 C.3       9 UNK        -0.1966 
     27 N         -72.8024   24.3519  -73.8680 N.am      9 UNK        -0.4218 
     28 C         -72.4046   24.9412  -75.0076 C.2       9 UNK         0.5020 
     29 O         -71.7819   26.0031  -75.0633 O.2       9 UNK        -0.5274 
     30 CA        -72.6892   24.1735  -76.3115 C.3       8 UNK         0.0270 
     31 CB        -73.2795   22.7567  -76.0997 C.3       8 UNK        -0.1976 
     32 N         -73.5499   24.9500  -77.2035 N.am      8 UNK        -0.4313 
     33 C         -73.6483   24.7448  -78.5239 C.2       8 UNK         0.5041 
     34 O         -72.9125   23.9800  -79.1506 O.2       8 UNK        -0.5577 
     35 CA        -74.7759   25.4620  -79.2792 C.3       7 UNK         0.0284 
     36 CB        -76.1436   24.8698  -78.8926 C.3       7 UNK        -0.1958 
     37 N         -74.7936   26.9071  -79.0457 N.am      7 UNK        -0.4454 
     38 C         -74.6858   27.8347  -80.0093 C.2       7 UNK         0.5089 
     39 O         -74.4254   27.5675  -81.1835 O.2       7 UNK        -0.5125 
     40 CA        -74.9547   29.3087  -79.6394 C.3       6 UNK         0.0408 
     41 CB        -76.2164   29.8180  -80.3570 C.3       6 UNK        -0.1791 
     42 N         -75.1229   29.5256  -78.2026 N.am      6 UNK        -0.4762 
     43 C         -74.1207   29.7247  -77.3374 C.2       6 UNK         0.5007 
     44 O         -72.9413   29.8305  -77.6747 O.2       6 UNK        -0.5032 
     45 CA        -74.4862   29.7679  -75.8377 C.3       5 UNK         0.0783 
     46 C46       -74.5036   31.2130  -75.2799 C.3       11 UNK        -0.0857 
     47 S47       -76.0033   32.1527  -75.7390 S.3       11 UNK        -0.2512 
     48 C48       -76.7110   32.5652  -74.1106 C.3       11 UNK         0.0225 
     49 N         -75.7111   29.0364  -75.4907 N.am      5 UNK        -0.4615 
     50 C         -75.9086   27.7296  -75.6844 C.2       4 UNK         0.5053 
     51 O         -75.0661   26.9813  -76.1790 O.2       4 UNK        -0.5105 
     52 CA        -77.3125   27.2056  -75.3632 C.3       4 UNK         0.0263 
     53 CB        -78.2897   27.6315  -76.4736 C.3       4 UNK        -0.1981 
     54 N         -77.3793   25.7522  -75.2290 N.am      4 UNK        -0.4224 
     55 C         -76.7337   25.0026  -74.3279 C.2       3 UNK         0.4895 
     56 O         -75.9361   25.4495  -73.5015 O.2       3 UNK        -0.5091 
     57 CA        -77.0761   23.4998  -74.3483 C.3       3 UNK         0.0250 
     58 CB        -76.4097   22.7171  -73.2028 C.3       3 UNK        -0.1996 
     59 N         -78.5249   23.2792  -74.2907 N.am      3 UNK        -0.4254 
     60 C         -79.3560   23.3166  -75.3418 C.2       2 UNK         0.5004 
     61 O         -78.9876   23.5596  -76.4912 O.2       2 UNK        -0.5226 
     62 CA        -80.8468   23.0904  -75.0509 C.3       2 UNK         0.0269 
     63 CB        -81.1501   21.5925  -74.8837 C.3       2 UNK        -0.1926 
     64 N         -81.2947   23.8187  -73.8607 N.am      2 UNK        -0.4687 
     65 C         -81.5226   25.1411  -73.8200 C.2       1 UNK         0.5165 
     66 O         -81.3867   25.8729  -74.8006 O.2       1 UNK        -0.5079 
     67 H67       -82.6150   23.0032  -69.6078 H         1 UNK         0.0900 
     68 H68       -83.6414   22.0073  -70.6421 H         1 UNK         0.0900 
     69 H69       -84.3624   23.2473  -69.6127 H         1 UNK         0.0900 
     70 H70       -81.5340   24.5904  -70.7583 H         1 UNK         0.2959 
     71 H71       -82.9249   26.2542  -72.6859 H         1 UNK         0.1079 
     72 H72       -80.9271   26.7981  -70.8583 H         1 UNK         0.0837 
     73 H73       -79.9530   26.6111  -72.2797 H         1 UNK         0.0837 
     74 H74       -79.9649   28.0660  -74.2214 H         1 UNK         0.0685 
     75 H75       -80.7392   29.6167  -74.3870 H         1 UNK         0.0685 
     76 H76       -78.9053   31.0804  -74.7334 H         1 UNK         0.1434 
     77 H77       -75.7672   31.3913  -71.8280 H         1 UNK         0.1329 
     78 H78       -78.7608   28.3694  -71.4058 H         1 UNK         0.1335 
     79 H79       -77.3985   29.1073  -69.4768 H         1 UNK         0.0680 
     80 H80       -76.0594   30.1966  -69.6837 H         1 UNK         0.0680 
     81 H81       -74.0464   29.8021  -70.8061 H         1 UNK         0.1032 
     82 H82       -73.1507   28.4312  -70.2315 H         1 UNK         0.1032 
     83 H83       -74.4316   28.6394  -72.9963 H         1 UNK         0.0461 
     84 H84       -70.7974   29.2478  -74.1651 H         1 UNK         0.3453 
     85 H85       -71.6751   27.7333  -74.1496 H         1 UNK         0.3453 
     86 H86       -74.1441   26.4468  -73.1529 H         1 UNK         0.2984 
     87 H87       -71.3574   24.3541  -72.4046 H         1 UNK         0.0554 
     88 H88       -73.1394   22.7533  -71.7222 H         1 UNK         0.0847 
     89 H89       -74.2802   24.0905  -71.5344 H         1 UNK         0.0847 
     90 H90       -72.8811   23.9676  -70.4828 H         1 UNK         0.0847 
     91 H91       -73.3258   23.4967  -73.9730 H         1 UNK         0.3141 
     92 H92       -71.7167   24.0584  -76.7949 H         1 UNK         0.0743 
     93 H93       -72.6517   22.1538  -75.4419 H         1 UNK         0.0784 
     94 H94       -74.2833   22.7913  -75.6770 H         1 UNK         0.0784 
     95 H95       -73.3445   22.2121  -77.0418 H         1 UNK         0.0784 
     96 H96       -74.1309   25.6637  -76.7576 H         1 UNK         0.3213 
     97 H97       -74.6224   25.2529  -80.3401 H         1 UNK         0.0855 
     98 H98       -76.1633   23.7912  -79.0550 H         1 UNK         0.0814 
     99 H99       -76.9451   25.3012  -79.4923 H         1 UNK         0.0814 
    100 H100      -76.3824   25.0439  -77.8435 H         1 UNK         0.0814 
    101 H101      -74.9338   27.2043  -78.0854 H         1 UNK         0.3105 
    102 H102      -74.1051   29.8950  -79.9959 H         1 UNK         0.0547 
    103 H103      -76.1172   29.7235  -81.4393 H         1 UNK         0.0837 
    104 H104      -77.1042   29.2572  -80.0620 H         1 UNK         0.0837 
    105 H105      -76.3971   30.8716  -80.1429 H         1 UNK         0.0837 
    106 H106      -76.0634   29.4737  -77.8391 H         1 UNK         0.3020 
    107 H107      -73.6686   29.2326  -75.3602 H         1 UNK         0.1245 
    108 H108      -73.6246   31.7705  -75.6097 H         1 UNK         0.0781 
    109 H109      -74.4264   31.1778  -74.1929 H         1 UNK         0.0781 
    110 H110      -77.5164   33.2868  -74.2548 H         1 UNK         0.0836 
    111 H111      -75.9560   33.0759  -73.5105 H         1 UNK         0.0836 
    112 H112      -76.4525   29.5982  -75.0945 H         1 UNK         0.3022 
    113 H113      -77.6206   27.6300  -74.4083 H         1 UNK         0.0747 
    114 H114      -79.2892   27.2300  -76.3050 H         1 UNK         0.0793 
    115 H115      -78.3844   28.7168  -76.5252 H         1 UNK         0.0793 
    116 H116      -77.9602   27.2839  -77.4540 H         1 UNK         0.0793 
    117 H117      -77.9969   25.2653  -75.8691 H         1 UNK         0.3047 
    118 H118      -76.6959   23.0976  -75.2899 H         1 UNK         0.0822 
    119 H119      -76.6805   21.6615  -73.2322 H         1 UNK         0.0807 
    120 H120      -76.6924   23.1098  -72.2251 H         1 UNK         0.0807 
    121 H121      -75.3247   22.7689  -73.2773 H         1 UNK         0.0807 
    122 H122      -78.9197   23.1197  -73.3755 H         1 UNK         0.2946 
    123 H123      -81.4090   23.4561  -75.9139 H         1 UNK         0.1144 
    124 H124      -82.2182   21.4177  -74.7527 H         1 UNK         0.0793 
    125 H125      -80.6324   21.1640  -74.0246 H         1 UNK         0.0793 
    126 H126      -80.8377   21.0313  -75.7657 H         1 UNK         0.0793 
    127 H127      -81.4497   23.2836  -73.0189 H         1 UNK         0.2896 
@<TRIPOS>BOND
     1    1    2 1    
     2    1   67 1    
     3    1   68 1    
     4    1   69 1    
     5    2    3 2    
     6    2    4 am   BACKBONE|DICT|INTERRES
     7    4    5 1    
     8    4   70 1    
     9    5    6 1    
    10    5   65 1    
    11    5   71 1    
    12    6    7 1    
    13    6   72 1    
    14    6   73 1    
    15    7    8 1    
    16    8    9 1    
    17    8   74 1    
    18    8   75 1    
    19    9   10 ar   
    20    9   14 ar   
    21   10   11 ar   
    22   10   76 1    
    23   11   12 ar   
    24   11   48 1    
    25   12   13 ar   
    26   12   77 1    
    27   13   14 ar   
    28   13   15 1    
    29   14   78 1    
    30   15   16 1    
    31   15   79 1    
    32   15   80 1    
    33   16   17 1    
    34   17   18 1    
    35   17   81 1    
    36   17   82 1    
    37   18   19 1    
    38   18   22 1    
    39   18   83 1    
    40   19   20 am   BACKBONE|DICT|INTERRES
    41   19   21 2    
    42   20   84 1    
    43   20   85 1    
    44   22   23 am   BACKBONE|DICT|INTERRES
    45   22   86 1    
    46   23   24 2    
    47   23   25 1    
    48   25   26 1    
    49   25   27 1    
    50   25   87 1    
    51   26   88 1    
    52   26   89 1    
    53   26   90 1    
    54   27   28 am   BACKBONE|DICT|INTERRES
    55   27   91 1    
    56   28   29 2    
    57   28   30 1    
    58   30   31 1    
    59   30   32 1    
    60   30   92 1    
    61   31   93 1    
    62   31   94 1    
    63   31   95 1    
    64   32   33 am   BACKBONE|DICT|INTERRES
    65   32   96 1    
    66   33   34 2    
    67   33   35 1    
    68   35   36 1    
    69   35   37 1    
    70   35   97 1    
    71   36   98 1    
    72   36   99 1    
    73   36  100 1    
    74   37   38 am   BACKBONE|DICT|INTERRES
    75   37  101 1    
    76   38   39 2    
    77   38   40 1    
    78   40   41 1    
    79   40   42 1    
    80   40  102 1    
    81   41  103 1    
    82   41  104 1    
    83   41  105 1    
    84   42   43 am   BACKBONE|DICT|INTERRES
    85   42  106 1    
    86   43   44 2    
    87   43   45 1    
    88   45   46 1    
    89   45   49 1    
    90   45  107 1    
    91   46   47 1    
    92   46  108 1    
    93   46  109 1    
    94   47   48 1    
    95   48  110 1    
    96   48  111 1    
    97   49   50 am   BACKBONE|DICT|INTERRES
    98   49  112 1    
    99   50   51 2    
   100   50   52 1    
   101   52   53 1    
   102   52   54 1    
   103   52  113 1    
   104   53  114 1    
   105   53  115 1    
   106   53  116 1    
   107   54   55 am   BACKBONE|DICT|INTERRES
   108   54  117 1    
   109   55   56 2    
   110   55   57 1    
   111   57   58 1    
   112   57   59 1    
   113   57  118 1    
   114   58  119 1    
   115   58  120 1    
   116   58  121 1    
   117   59   60 am   BACKBONE|DICT|INTERRES
   118   59  122 1    
   119   60   61 2    
   120   60   62 1    
   121   62   63 1    
   122   62   64 1    
   123   62  123 1    
   124   63  124 1    
   125   63  125 1    
   126   63  126 1    
   127   64   65 am   BACKBONE|DICT|INTERRES
   128   64  127 1    
   129   65   66 2    
@<TRIPOS>SUBSTRUCTURE
     1 UNK         1 GROUP             0       ****    0 ROOT    
