@<TRIPOS>MOLECULE
3R135
127   129    1
SMALL
USER_CHARGES


@<TRIPOS>ATOM
      1 CA        -83.4225   22.7455  -70.7802 C.3       0 UNK        -0.1998 
      2 C         -83.4196   23.9581  -71.6989 C.2       0 UNK         0.4909 
      3 O         -84.3781   24.1647  -72.4446 O.2       0 UNK        -0.5240 
      4 N         -82.3545   24.7664  -71.6422 N.am      1 UNK        -0.4739 
      5 CA        -82.1283   25.9285  -72.5071 C.3       1 UNK         0.0864 
      6 C6        -81.0643   26.9016  -71.9289 C.3       11 UNK        -0.0881 
      7 S7        -79.6075   26.1022  -71.1607 S.3       11 UNK        -0.2682 
      8 C8        -79.0748   27.3471  -69.9404 C.3       11 UNK         0.0289 
      9 C9        -78.1335   28.3716  -70.5576 C.ar      11 UNK        -0.0687 
     10 C10       -78.6193   29.3056  -71.4742 C.ar      11 UNK        -0.0823 
     11 C11       -77.7592   30.2194  -72.0840 C.ar      11 UNK        -0.0830 
     12 C12       -76.4097   30.2414  -71.7216 C.ar      11 UNK        -0.1021 
     13 C13       -75.9102   29.3272  -70.7884 C.ar      11 UNK        -0.0753 
     14 C14       -76.7766   28.3882  -70.2173 C.ar      11 UNK        -0.0933 
     15 C15       -74.4424   29.3547  -70.3827 C.3       11 UNK         0.0166 
     16 S16       -73.5044   28.0142  -71.1826 S.3       11 UNK        -0.2615 
     17 C17       -72.3568   28.9167  -72.2792 C.3       11 UNK        -0.0865 
     18 CA        -72.9888   29.2554  -73.6640 C.3       10 UNK         0.0862 
     19 C         -73.5009   30.7206  -73.7994 C.2       10 UNK         0.5551 
     20 N         -74.2219   31.0239  -74.8682 N.am      10 UNK        -0.7319 
     21 O         -73.2451   31.5835  -72.9624 O.2       10 UNK        -0.5018 
     22 N         -72.1286   28.8483  -74.7861 N.am      10 UNK        -0.4509 
     23 C         -71.0027   29.4591  -75.1870 C.2       10 UNK         0.4899 
     24 O         -70.5202   30.4481  -74.6327 O.2       10 UNK        -0.4839 
     25 CA        -70.2899   28.8472  -76.4124 C.3       9 UNK         0.0222 
     26 CB        -68.8635   29.3991  -76.6247 C.3       9 UNK        -0.1966 
     27 N         -70.2857   27.3805  -76.3873 N.am      9 UNK        -0.4218 
     28 C         -69.7850   26.5864  -75.4273 C.2       9 UNK         0.5020 
     29 O         -69.1193   26.9986  -74.4754 O.2       9 UNK        -0.5274 
     30 CA        -70.0795   25.0743  -75.5410 C.3       8 UNK         0.0270 
     31 CB        -70.2815   24.4244  -74.1549 C.3       8 UNK        -0.1976 
     32 N         -71.1984   24.7180  -76.4301 N.am      8 UNK        -0.4313 
     33 C         -72.4750   25.1221  -76.3411 C.2       8 UNK         0.5041 
     34 O         -72.8858   25.9441  -75.5187 O.2       8 UNK        -0.5577 
     35 CA        -73.4474   24.4738  -77.3405 C.3       7 UNK         0.0284 
     36 CB        -73.9585   23.1338  -76.7864 C.3       7 UNK        -0.1958 
     37 N         -74.5931   25.3311  -77.6450 N.am      7 UNK        -0.4454 
     38 C         -74.5340   26.4874  -78.3176 C.2       7 UNK         0.5089 
     39 O         -73.4997   26.9458  -78.8066 O.2       7 UNK        -0.5125 
     40 CA        -75.8562   27.2603  -78.4756 C.3       6 UNK         0.0408 
     41 CB        -76.7093   26.6626  -79.6058 C.3       6 UNK        -0.1791 
     42 N         -76.6395   27.3090  -77.2374 N.am      6 UNK        -0.4762 
     43 C         -76.2781   28.0036  -76.1469 C.2       6 UNK         0.5007 
     44 O         -75.2575   28.6896  -76.0952 O.2       6 UNK        -0.5032 
     45 CA        -77.2097   27.9224  -74.9168 C.3       5 UNK         0.0783 
     46 C46       -78.3557   28.9674  -74.9925 C.3       11 UNK        -0.0857 
     47 S47       -77.7663   30.6920  -74.8224 S.3       11 UNK        -0.2512 
     48 C48       -78.2948   31.1690  -73.1442 C.3       11 UNK         0.0225 
     49 N         -77.7222   26.5545  -74.7723 N.am      5 UNK        -0.4615 
     50 C         -77.0303   25.5563  -74.1993 C.2       4 UNK         0.5053 
     51 O         -75.9885   25.7322  -73.5700 O.2       4 UNK        -0.5105 
     52 CA        -77.5388   24.1101  -74.3818 C.3       4 UNK         0.0263 
     53 CB        -78.0956   23.5145  -73.0799 C.3       4 UNK        -0.1981 
     54 N         -78.5290   23.9610  -75.4501 N.am      4 UNK        -0.4224 
     55 C         -78.2182   23.9618  -76.7542 C.2       3 UNK         0.4895 
     56 O         -77.0669   24.0468  -77.1756 O.2       3 UNK        -0.5091 
     57 CA        -79.3727   23.9116  -77.7697 C.3       3 UNK         0.0250 
     58 CB        -79.6453   22.4616  -78.1988 C.3       3 UNK        -0.1996 
     59 N         -80.6175   24.5207  -77.2960 N.am      3 UNK        -0.4254 
     60 C         -80.7543   25.7840  -76.8696 C.2       2 UNK         0.5004 
     61 O         -79.8256   26.5924  -76.8242 O.2       2 UNK        -0.5226 
     62 CA        -82.1459   26.2091  -76.3669 C.3       2 UNK         0.0269 
     63 CB        -83.2866   25.2639  -76.8095 C.3       2 UNK        -0.1926 
     64 N         -82.1884   26.3920  -74.9095 N.am      2 UNK        -0.4687 
     65 C         -81.8212   25.5118  -73.9632 C.2       1 UNK         0.5165 
     66 O         -81.2779   24.4282  -74.1998 O.2       1 UNK        -0.5079 
     67 H67       -82.5212   22.6955  -70.1693 H         1 UNK         0.0900 
     68 H68       -83.4845   21.8303  -71.3683 H         1 UNK         0.0900 
     69 H69       -84.2831   22.7817  -70.1128 H         1 UNK         0.0900 
     70 H70       -81.5807   24.5389  -71.0333 H         1 UNK         0.2959 
     71 H71       -83.0739   26.4752  -72.5428 H         1 UNK         0.1079 
     72 H72       -80.7208   27.5962  -72.6963 H         1 UNK         0.0837 
     73 H73       -81.5458   27.5195  -71.1697 H         1 UNK         0.0837 
     74 H74       -79.9386   27.8483  -69.5018 H         1 UNK         0.0685 
     75 H75       -78.5787   26.8281  -69.1189 H         1 UNK         0.0685 
     76 H76       -79.6676   29.3098  -71.7312 H         1 UNK         0.1434 
     77 H77       -75.7526   30.9691  -72.1741 H         1 UNK         0.1329 
     78 H78       -76.3900   27.6707  -69.5064 H         1 UNK         0.1335 
     79 H79       -73.9984   30.3243  -70.6114 H         1 UNK         0.0680 
     80 H80       -74.3652   29.2372  -69.3008 H         1 UNK         0.0680 
     81 H81       -71.4973   28.2577  -72.4150 H         1 UNK         0.1032 
     82 H82       -71.9500   29.7918  -71.7703 H         1 UNK         0.1032 
     83 H83       -73.8769   28.6325  -73.7796 H         1 UNK         0.0461 
     84 H84       -74.5690   31.9606  -74.9921 H         1 UNK         0.3453 
     85 H85       -74.5059   30.2816  -75.5032 H         1 UNK         0.3453 
     86 H86       -72.4383   28.0161  -75.2784 H         1 UNK         0.2984 
     87 H87       -70.8854   29.1334  -77.2806 H         1 UNK         0.0554 
     88 H88       -68.3954   28.9622  -77.5067 H         1 UNK         0.0847 
     89 H89       -68.2190   29.1981  -75.7684 H         1 UNK         0.0847 
     90 H90       -68.8805   30.4798  -76.7705 H         1 UNK         0.0847 
     91 H91       -70.8296   26.9329  -77.1120 H         1 UNK         0.3141 
     92 H92       -69.1868   24.6320  -75.9856 H         1 UNK         0.0743 
     93 H93       -71.1260   24.8660  -73.6241 H         1 UNK         0.0784 
     94 H94       -70.4627   23.3530  -74.2405 H         1 UNK         0.0784 
     95 H95       -69.3996   24.5512  -73.5257 H         1 UNK         0.0784 
     96 H96       -70.9663   24.0562  -77.1591 H         1 UNK         0.3213 
     97 H97       -72.9157   24.2866  -78.2759 H         1 UNK         0.0855 
     98 H98       -74.5059   23.2712  -75.8531 H         1 UNK         0.0814 
     99 H99       -73.1342   22.4490  -76.5833 H         1 UNK         0.0814 
    100 H100      -74.6236   22.6385  -77.4942 H         1 UNK         0.0814 
    101 H101      -75.5001   25.0075  -77.3155 H         1 UNK         0.3105 
    102 H102      -75.6085   28.2872  -78.7530 H         1 UNK         0.0547 
    103 H103      -76.1659   26.6805  -80.5514 H         1 UNK         0.0837 
    104 H104      -76.9781   25.6250  -79.4078 H         1 UNK         0.0837 
    105 H105      -77.6304   27.2270  -79.7511 H         1 UNK         0.0837 
    106 H106      -77.5043   26.7850  -77.2143 H         1 UNK         0.3020 
    107 H107      -76.6060   28.1565  -74.0357 H         1 UNK         0.1245 
    108 H108      -79.0964   28.7675  -74.2186 H         1 UNK         0.0781 
    109 H109      -78.8937   28.8863  -75.9382 H         1 UNK         0.0781 
    110 H110      -79.3845   31.2146  -73.1135 H         1 UNK         0.0836 
    111 H111      -77.9420   32.1801  -72.9364 H         1 UNK         0.0836 
    112 H112      -78.5626   26.3401  -75.2979 H         1 UNK         0.3022 
    113 H113      -76.6616   23.5170  -74.6488 H         1 UNK         0.0747 
    114 H114      -78.1878   22.4311  -73.1542 H         1 UNK         0.0793 
    115 H115      -77.4422   23.7272  -72.2326 H         1 UNK         0.0793 
    116 H116      -79.0813   23.9097  -72.8441 H         1 UNK         0.0793 
    117 H117      -79.5052   23.9347  -75.1702 H         1 UNK         0.3047 
    118 H118      -79.0537   24.4737  -78.6494 H         1 UNK         0.0822 
    119 H119      -80.3892   22.4150  -78.9944 H         1 UNK         0.0807 
    120 H120      -80.0031   21.8546  -77.3662 H         1 UNK         0.0807 
    121 H121      -78.7376   21.9904  -78.5794 H         1 UNK         0.0807 
    122 H122      -81.4290   23.9209  -77.2612 H         1 UNK         0.2946 
    123 H123      -82.3354   27.1864  -76.8144 H         1 UNK         0.1144 
    124 H124      -84.2587   25.6775  -76.5403 H         1 UNK         0.0793 
    125 H125      -83.2143   24.2794  -76.3454 H         1 UNK         0.0793 
    126 H126      -83.2914   25.1261  -77.8919 H         1 UNK         0.0793 
    127 H127      -82.5825   27.2722  -74.6070 H         1 UNK         0.2896 
@<TRIPOS>BOND
     1    1    2 1    
     2    1   67 1    
     3    1   68 1    
     4    1   69 1    
     5    2    3 2    
     6    2    4 am   BACKBONE|DICT|INTERRES
     7    4    5 1    
     8    4   70 1    
     9    5    6 1    
    10    5   65 1    
    11    5   71 1    
    12    6    7 1    
    13    6   72 1    
    14    6   73 1    
    15    7    8 1    
    16    8    9 1    
    17    8   74 1    
    18    8   75 1    
    19    9   10 ar   
    20    9   14 ar   
    21   10   11 ar   
    22   10   76 1    
    23   11   12 ar   
    24   11   48 1    
    25   12   13 ar   
    26   12   77 1    
    27   13   14 ar   
    28   13   15 1    
    29   14   78 1    
    30   15   16 1    
    31   15   79 1    
    32   15   80 1    
    33   16   17 1    
    34   17   18 1    
    35   17   81 1    
    36   17   82 1    
    37   18   19 1    
    38   18   22 1    
    39   18   83 1    
    40   19   20 am   BACKBONE|DICT|INTERRES
    41   19   21 2    
    42   20   84 1    
    43   20   85 1    
    44   22   23 am   BACKBONE|DICT|INTERRES
    45   22   86 1    
    46   23   24 2    
    47   23   25 1    
    48   25   26 1    
    49   25   27 1    
    50   25   87 1    
    51   26   88 1    
    52   26   89 1    
    53   26   90 1    
    54   27   28 am   BACKBONE|DICT|INTERRES
    55   27   91 1    
    56   28   29 2    
    57   28   30 1    
    58   30   31 1    
    59   30   32 1    
    60   30   92 1    
    61   31   93 1    
    62   31   94 1    
    63   31   95 1    
    64   32   33 am   BACKBONE|DICT|INTERRES
    65   32   96 1    
    66   33   34 2    
    67   33   35 1    
    68   35   36 1    
    69   35   37 1    
    70   35   97 1    
    71   36   98 1    
    72   36   99 1    
    73   36  100 1    
    74   37   38 am   BACKBONE|DICT|INTERRES
    75   37  101 1    
    76   38   39 2    
    77   38   40 1    
    78   40   41 1    
    79   40   42 1    
    80   40  102 1    
    81   41  103 1    
    82   41  104 1    
    83   41  105 1    
    84   42   43 am   BACKBONE|DICT|INTERRES
    85   42  106 1    
    86   43   44 2    
    87   43   45 1    
    88   45   46 1    
    89   45   49 1    
    90   45  107 1    
    91   46   47 1    
    92   46  108 1    
    93   46  109 1    
    94   47   48 1    
    95   48  110 1    
    96   48  111 1    
    97   49   50 am   BACKBONE|DICT|INTERRES
    98   49  112 1    
    99   50   51 2    
   100   50   52 1    
   101   52   53 1    
   102   52   54 1    
   103   52  113 1    
   104   53  114 1    
   105   53  115 1    
   106   53  116 1    
   107   54   55 am   BACKBONE|DICT|INTERRES
   108   54  117 1    
   109   55   56 2    
   110   55   57 1    
   111   57   58 1    
   112   57   59 1    
   113   57  118 1    
   114   58  119 1    
   115   58  120 1    
   116   58  121 1    
   117   59   60 am   BACKBONE|DICT|INTERRES
   118   59  122 1    
   119   60   61 2    
   120   60   62 1    
   121   62   63 1    
   122   62   64 1    
   123   62  123 1    
   124   63  124 1    
   125   63  125 1    
   126   63  126 1    
   127   64   65 am   BACKBONE|DICT|INTERRES
   128   64  127 1    
   129   65   66 2    
@<TRIPOS>SUBSTRUCTURE
     1 UNK         1 GROUP             0       ****    0 ROOT    
