@<TRIPOS>MOLECULE
3R135
127   129    1
SMALL
USER_CHARGES


@<TRIPOS>ATOM
      1 CA        -84.4468   25.2885  -74.0613 C.3       0 UNK        -0.1998 
      2 C         -83.6771   26.5882  -73.8783 C.2       0 UNK         0.4909 
      3 O         -84.1680   27.6494  -74.2662 O.2       0 UNK        -0.5240 
      4 N         -82.4798   26.5102  -73.2830 N.am      1 UNK        -0.4739 
      5 CA        -81.5543   27.6344  -73.1029 C.3       1 UNK         0.0864 
      6 C6        -80.6596   27.4316  -71.8485 C.3       11 UNK        -0.0881 
      7 S7        -80.2733   29.0159  -71.0302 S.3       11 UNK        -0.2682 
      8 C8        -79.4444   28.4445  -69.5169 C.3       11 UNK         0.0289 
      9 C9        -78.0048   28.0349  -69.7862 C.ar      11 UNK        -0.0687 
     10 C10       -77.6605   26.6856  -69.9121 C.ar      11 UNK        -0.0823 
     11 C11       -76.3303   26.3101  -70.1285 C.ar      11 UNK        -0.0830 
     12 C12       -75.3434   27.2975  -70.2144 C.ar      11 UNK        -0.1021 
     13 C13       -75.6796   28.6500  -70.1068 C.ar      11 UNK        -0.0753 
     14 C14       -77.0114   29.0126  -69.8895 C.ar      11 UNK        -0.0933 
     15 C15       -74.6006   29.7167  -70.2122 C.3       11 UNK         0.0166 
     16 S16       -73.9791   29.8877  -71.9123 S.3       11 UNK        -0.2615 
     17 C17       -75.4080   30.6456  -72.7633 C.3       11 UNK        -0.0865 
     18 CA        -75.1461   30.9157  -74.2690 C.3       10 UNK         0.0862 
     19 C         -74.0996   32.0515  -74.4854 C.2       10 UNK         0.5551 
     20 N         -72.9118   31.7754  -75.0140 N.am      10 UNK        -0.7319 
     21 O         -74.3808   33.2067  -74.1758 O.2       10 UNK        -0.5018 
     22 N         -74.8589   29.6670  -74.9880 N.am      10 UNK        -0.4509 
     23 C         -74.8741   29.5185  -76.3185 C.2       10 UNK         0.4899 
     24 O         -75.3027   30.3759  -77.0918 O.2       10 UNK        -0.4839 
     25 CA        -74.3276   28.1895  -76.8800 C.3       9 UNK         0.0222 
     26 CB        -73.6625   28.3603  -78.2607 C.3       9 UNK        -0.1966 
     27 N         -73.4359   27.4671  -75.9637 N.am      9 UNK        -0.4218 
     28 C         -72.2693   27.8775  -75.4411 C.2       9 UNK         0.5020 
     29 O         -71.7810   28.9898  -75.6465 O.2       9 UNK        -0.5274 
     30 CA        -71.5300   26.8923  -74.5203 C.3       8 UNK         0.0270 
     31 CB        -72.0015   27.0576  -73.0669 C.3       8 UNK        -0.1976 
     32 N         -71.7386   25.5010  -74.9295 N.am      8 UNK        -0.4313 
     33 C         -70.7869   24.6837  -75.4001 C.2       8 UNK         0.5041 
     34 O         -69.6031   25.0036  -75.5198 O.2       8 UNK        -0.5577 
     35 CA        -71.2153   23.2584  -75.8033 C.3       7 UNK         0.0284 
     36 CB        -70.9868   22.2818  -74.6381 C.3       7 UNK        -0.1958 
     37 N         -72.6110   23.1674  -76.2394 N.am      7 UNK        -0.4454 
     38 C         -73.0992   23.7229  -77.3566 C.2       7 UNK         0.5089 
     39 O         -72.4025   24.2942  -78.1956 O.2       7 UNK        -0.5125 
     40 CA        -74.6231   23.6531  -77.5733 C.3       6 UNK         0.0408 
     41 CB        -74.9662   22.5243  -78.5581 C.3       6 UNK        -0.1791 
     42 N         -75.4500   23.5004  -76.3664 N.am      6 UNK        -0.4762 
     43 C         -75.4370   24.2915  -75.2824 C.2       6 UNK         0.5007 
     44 O         -74.5834   25.1577  -75.0912 O.2       6 UNK        -0.5032 
     45 CA        -76.5997   24.1115  -74.2855 C.3       5 UNK         0.0783 
     46 C46       -76.4851   25.0148  -73.0318 C.3       11 UNK        -0.0857 
     47 S47       -75.1967   24.4501  -71.8690 S.3       11 UNK        -0.2512 
     48 C48       -75.9595   24.8375  -70.2595 C.3       11 UNK         0.0225 
     49 N         -77.8361   24.3975  -75.0092 N.am      5 UNK        -0.4615 
     50 C         -78.6412   23.4849  -75.5686 C.2       4 UNK         0.5053 
     51 O         -78.4866   22.2710  -75.4371 O.2       4 UNK        -0.5105 
     52 CA        -79.7852   24.0068  -76.4590 C.3       4 UNK         0.0263 
     53 CB        -81.0923   24.0832  -75.6568 C.3       4 UNK        -0.1981 
     54 N         -79.4859   25.3159  -77.0516 N.am      4 UNK        -0.4224 
     55 C         -78.5409   25.5098  -77.9869 C.2       3 UNK         0.4895 
     56 O         -77.9371   24.5886  -78.5364 O.2       3 UNK        -0.5091 
     57 CA        -78.1736   26.9563  -78.3715 C.3       3 UNK         0.0250 
     58 CB        -78.7488   27.3071  -79.7531 C.3       3 UNK        -0.1996 
     59 N         -78.5837   27.9850  -77.4114 N.am      3 UNK        -0.4254 
     60 C         -78.2061   28.0703  -76.1281 C.2       2 UNK         0.5004 
     61 O         -77.4673   27.2558  -75.5751 O.2       2 UNK        -0.5226 
     62 CA        -78.7874   29.2334  -75.3013 C.3       2 UNK         0.0269 
     63 CB        -79.4604   30.3357  -76.1485 C.3       2 UNK        -0.1926 
     64 N         -79.7127   28.7721  -74.2591 N.am      2 UNK        -0.4687 
     65 C         -80.7365   27.9139  -74.3880 C.2       1 UNK         0.5165 
     66 O         -81.0294   27.3575  -75.4510 O.2       1 UNK        -0.5079 
     67 H67       -85.4099   25.3473  -73.5550 H         1 UNK         0.0900 
     68 H68       -84.6281   25.1078  -75.1205 H         1 UNK         0.0900 
     69 H69       -83.9044   24.4324  -73.6605 H         1 UNK         0.0900 
     70 H70       -82.1311   25.6070  -72.9978 H         1 UNK         0.2959 
     71 H71       -82.1662   28.5253  -72.9423 H         1 UNK         0.1079 
     72 H72       -81.1808   26.8174  -71.1119 H         1 UNK         0.0837 
     73 H73       -79.7384   26.8943  -72.0849 H         1 UNK         0.0837 
     74 H74       -80.0080   27.6236  -69.0709 H         1 UNK         0.0685 
     75 H75       -79.4581   29.2531  -68.7845 H         1 UNK         0.0685 
     76 H76       -78.4290   25.9286  -69.8355 H         1 UNK         0.1434 
     77 H77       -74.3134   27.0137  -70.3834 H         1 UNK         0.1329 
     78 H78       -77.2781   30.0567  -69.7981 H         1 UNK         0.1335 
     79 H79       -74.9662   30.6828  -69.8605 H         1 UNK         0.0680 
     80 H80       -73.7684   29.4485  -69.5599 H         1 UNK         0.0680 
     81 H81       -75.6823   31.5686  -72.2489 H         1 UNK         0.1032 
     82 H82       -76.2660   29.9799  -72.6567 H         1 UNK         0.1032 
     83 H83       -76.0782   31.3032  -74.6842 H         1 UNK         0.0461 
     84 H84       -72.2480   32.5203  -75.1514 H         1 UNK         0.3453 
     85 H85       -72.6577   30.8228  -75.2509 H         1 UNK         0.3453 
     86 H86       -74.4868   28.9163  -74.4255 H         1 UNK         0.2984 
     87 H87       -75.1927   27.5404  -77.0134 H         1 UNK         0.0554 
     88 H88       -74.3675   28.7605  -78.9903 H         1 UNK         0.0847 
     89 H89       -73.3049   27.4060  -78.6481 H         1 UNK         0.0847 
     90 H90       -72.8145   29.0445  -78.2176 H         1 UNK         0.0847 
     91 H91       -73.8013   26.5644  -75.6584 H         1 UNK         0.3141 
     92 H92       -70.4686   27.1456  -74.5611 H         1 UNK         0.0743 
     93 H93       -71.7956   28.0661  -72.7074 H         1 UNK         0.0784 
     94 H94       -73.0733   26.8798  -72.9621 H         1 UNK         0.0784 
     95 H95       -71.4830   26.3676  -72.4011 H         1 UNK         0.0784 
     96 H96       -72.6951   25.1584  -74.8925 H         1 UNK         0.3213 
     97 H97       -70.5817   22.9505  -76.6381 H         1 UNK         0.0855 
     98 H98       -71.6078   22.5284  -73.7759 H         1 UNK         0.0814 
     99 H99       -69.9472   22.3063  -74.3079 H         1 UNK         0.0814 
    100 H100      -71.2073   21.2549  -74.9304 H         1 UNK         0.0814 
    101 H101      -73.2614   22.7147  -75.6139 H         1 UNK         0.3105 
    102 H102      -74.9169   24.5997  -78.0317 H         1 UNK         0.0547 
    103 H103      -74.7420   21.5422  -78.1401 H         1 UNK         0.0837 
    104 H104      -74.3957   22.6235  -79.4828 H         1 UNK         0.0837 
    105 H105      -76.0216   22.5421  -78.8309 H         1 UNK         0.0837 
    106 H106      -76.1987   22.8240  -76.4342 H         1 UNK         0.3020 
    107 H107      -76.5941   23.0700  -73.9556 H         1 UNK         0.1245 
    108 H108      -77.4400   25.0142  -72.5042 H         1 UNK         0.0781 
    109 H109      -76.2970   26.0569  -73.2996 H         1 UNK         0.0781 
    110 H110      -75.2599   24.5750  -69.4650 H         1 UNK         0.0836 
    111 H111      -76.8339   24.1996  -70.1207 H         1 UNK         0.0836 
    112 H112      -77.9747   25.3793  -75.2333 H         1 UNK         0.3022 
    113 H113      -79.9266   23.2925  -77.2730 H         1 UNK         0.0747 
    114 H114      -80.9786   24.7113  -74.7745 H         1 UNK         0.0793 
    115 H115      -81.9088   24.4865  -76.2562 H         1 UNK         0.0793 
    116 H116      -81.3965   23.0935  -75.3137 H         1 UNK         0.0793 
    117 H117      -79.9547   26.1206  -76.6446 H         1 UNK         0.3047 
    118 H118      -77.0847   26.9940  -78.4384 H         1 UNK         0.0822 
    119 H119      -78.4054   28.2853  -80.0907 H         1 UNK         0.0807 
    120 H120      -79.8395   27.3162  -79.7449 H         1 UNK         0.0807 
    121 H121      -78.4348   26.5806  -80.5041 H         1 UNK         0.0807 
    122 H122      -79.2283   28.6819  -77.7551 H         1 UNK         0.2946 
    123 H123      -77.9369   29.6823  -74.7874 H         1 UNK         0.1144 
    124 H124      -79.7467   31.1828  -75.5249 H         1 UNK         0.0793 
    125 H125      -80.3628   29.9804  -76.6478 H         1 UNK         0.0793 
    126 H126      -78.7805   30.7210  -76.9101 H         1 UNK         0.0793 
    127 H127      -79.5377   29.1341  -73.3297 H         1 UNK         0.2896 
@<TRIPOS>BOND
     1    1    2 1    
     2    1   67 1    
     3    1   68 1    
     4    1   69 1    
     5    2    3 2    
     6    2    4 am   BACKBONE|DICT|INTERRES
     7    4    5 1    
     8    4   70 1    
     9    5    6 1    
    10    5   65 1    
    11    5   71 1    
    12    6    7 1    
    13    6   72 1    
    14    6   73 1    
    15    7    8 1    
    16    8    9 1    
    17    8   74 1    
    18    8   75 1    
    19    9   10 ar   
    20    9   14 ar   
    21   10   11 ar   
    22   10   76 1    
    23   11   12 ar   
    24   11   48 1    
    25   12   13 ar   
    26   12   77 1    
    27   13   14 ar   
    28   13   15 1    
    29   14   78 1    
    30   15   16 1    
    31   15   79 1    
    32   15   80 1    
    33   16   17 1    
    34   17   18 1    
    35   17   81 1    
    36   17   82 1    
    37   18   19 1    
    38   18   22 1    
    39   18   83 1    
    40   19   20 am   BACKBONE|DICT|INTERRES
    41   19   21 2    
    42   20   84 1    
    43   20   85 1    
    44   22   23 am   BACKBONE|DICT|INTERRES
    45   22   86 1    
    46   23   24 2    
    47   23   25 1    
    48   25   26 1    
    49   25   27 1    
    50   25   87 1    
    51   26   88 1    
    52   26   89 1    
    53   26   90 1    
    54   27   28 am   BACKBONE|DICT|INTERRES
    55   27   91 1    
    56   28   29 2    
    57   28   30 1    
    58   30   31 1    
    59   30   32 1    
    60   30   92 1    
    61   31   93 1    
    62   31   94 1    
    63   31   95 1    
    64   32   33 am   BACKBONE|DICT|INTERRES
    65   32   96 1    
    66   33   34 2    
    67   33   35 1    
    68   35   36 1    
    69   35   37 1    
    70   35   97 1    
    71   36   98 1    
    72   36   99 1    
    73   36  100 1    
    74   37   38 am   BACKBONE|DICT|INTERRES
    75   37  101 1    
    76   38   39 2    
    77   38   40 1    
    78   40   41 1    
    79   40   42 1    
    80   40  102 1    
    81   41  103 1    
    82   41  104 1    
    83   41  105 1    
    84   42   43 am   BACKBONE|DICT|INTERRES
    85   42  106 1    
    86   43   44 2    
    87   43   45 1    
    88   45   46 1    
    89   45   49 1    
    90   45  107 1    
    91   46   47 1    
    92   46  108 1    
    93   46  109 1    
    94   47   48 1    
    95   48  110 1    
    96   48  111 1    
    97   49   50 am   BACKBONE|DICT|INTERRES
    98   49  112 1    
    99   50   51 2    
   100   50   52 1    
   101   52   53 1    
   102   52   54 1    
   103   52  113 1    
   104   53  114 1    
   105   53  115 1    
   106   53  116 1    
   107   54   55 am   BACKBONE|DICT|INTERRES
   108   54  117 1    
   109   55   56 2    
   110   55   57 1    
   111   57   58 1    
   112   57   59 1    
   113   57  118 1    
   114   58  119 1    
   115   58  120 1    
   116   58  121 1    
   117   59   60 am   BACKBONE|DICT|INTERRES
   118   59  122 1    
   119   60   61 2    
   120   60   62 1    
   121   62   63 1    
   122   62   64 1    
   123   62  123 1    
   124   63  124 1    
   125   63  125 1    
   126   63  126 1    
   127   64   65 am   BACKBONE|DICT|INTERRES
   128   64  127 1    
   129   65   66 2    
@<TRIPOS>SUBSTRUCTURE
     1 UNK         1 GROUP             0       ****    0 ROOT    
