@<TRIPOS>MOLECULE
3R135
127   129    1
SMALL
USER_CHARGES


@<TRIPOS>ATOM
      1 CA        -84.8402   26.9426  -74.3131 C.3       0 UNK        -0.1998 
      2 C         -84.0649   26.0893  -73.3122 C.2       0 UNK         0.4909 
      3 O         -84.5098   24.9904  -72.9869 O.2       0 UNK        -0.5240 
      4 N         -82.9137   26.5387  -72.7894 N.am      1 UNK        -0.4739 
      5 CA        -82.2221   27.7988  -73.1046 C.3       1 UNK         0.0864 
      6 C6        -81.1828   28.1455  -72.0074 C.3       11 UNK        -0.0881 
      7 S7        -81.0054   29.9409  -71.7232 S.3       11 UNK        -0.2682 
      8 C8        -80.1332   29.9756  -70.1199 C.3       11 UNK         0.0289 
      9 C9        -78.7217   29.4239  -70.2496 C.ar      11 UNK        -0.0687 
     10 C10       -78.4920   28.0549  -70.0947 C.ar      11 UNK        -0.0823 
     11 C11       -77.2304   27.5143  -70.3521 C.ar      11 UNK        -0.0830 
     12 C12       -76.1691   28.3645  -70.6756 C.ar      11 UNK        -0.1021 
     13 C13       -76.3778   29.7415  -70.7923 C.ar      11 UNK        -0.0753 
     14 C14       -77.6574   30.2667  -70.5841 C.ar      11 UNK        -0.0933 
     15 C15       -75.2295   30.6512  -71.1937 C.3       11 UNK         0.0166 
     16 S16       -74.9837   30.6136  -72.9948 S.3       11 UNK        -0.2615 
     17 C17       -73.6667   31.8617  -73.1966 C.3       11 UNK        -0.0865 
     18 CA        -72.2640   31.2716  -73.5040 C.3       10 UNK         0.0862 
     19 C         -71.5796   30.6243  -72.2628 C.2       10 UNK         0.5551 
     20 N         -70.9498   29.4602  -72.3719 N.am      10 UNK        -0.7319 
     21 O         -71.6013   31.2012  -71.1782 O.2       10 UNK        -0.5018 
     22 N         -72.2878   30.4142  -74.6997 N.am      10 UNK        -0.4509 
     23 C         -71.3263   30.3662  -75.6280 C.2       10 UNK         0.4899 
     24 O         -70.3341   31.0973  -75.6262 O.2       10 UNK        -0.4839 
     25 CA        -71.5061   29.3071  -76.7338 C.3       9 UNK         0.0222 
     26 CB        -70.2812   29.2042  -77.6666 C.3       9 UNK        -0.1966 
     27 N         -71.8605   27.9748  -76.2253 N.am      9 UNK        -0.4218 
     28 C         -71.1982   27.2491  -75.3076 C.2       9 UNK         0.5020 
     29 O         -70.2310   27.6704  -74.6719 O.2       9 UNK        -0.5274 
     30 CA        -71.6835   25.8119  -75.0285 C.3       8 UNK         0.0270 
     31 CB        -72.3699   25.7381  -73.6539 C.3       8 UNK        -0.1976 
     32 N         -72.5806   25.2674  -76.0523 N.am      8 UNK        -0.4313 
     33 C         -72.2314   24.9818  -77.3155 C.2       8 UNK         0.5041 
     34 O         -71.0781   25.0575  -77.7404 O.2       8 UNK        -0.5577 
     35 CA        -73.3643   24.5891  -78.2824 C.3       7 UNK         0.0284 
     36 CB        -73.5579   23.0650  -78.2998 C.3       7 UNK        -0.1958 
     37 N         -74.6433   25.2433  -77.9828 N.am      7 UNK        -0.4454 
     38 C         -74.8538   26.5686  -77.9923 C.2       7 UNK         0.5089 
     39 O         -73.9935   27.3985  -78.2848 O.2       7 UNK        -0.5125 
     40 CA        -76.2364   27.0503  -77.5263 C.3       6 UNK         0.0408 
     41 CB        -77.2844   26.9135  -78.6426 C.3       6 UNK        -0.1791 
     42 N         -76.6648   26.3293  -76.3252 N.am      6 UNK        -0.4762 
     43 C         -76.1475   26.5466  -75.1054 C.2       6 UNK         0.5007 
     44 O         -75.3333   27.4373  -74.8656 O.2       6 UNK        -0.5032 
     45 CA        -76.5708   25.5918  -73.9712 C.3       5 UNK         0.0783 
     46 C46       -77.7406   26.1863  -73.1596 C.3       11 UNK        -0.0857 
     47 S47       -78.1036   25.2143  -71.6525 S.3       11 UNK        -0.2512 
     48 C48       -77.0439   26.0048  -70.3876 C.3       11 UNK         0.0225 
     49 N         -76.8760   24.2493  -74.4716 N.am      5 UNK        -0.4615 
     50 C         -75.9484   23.3773  -74.8866 C.2       4 UNK         0.5053 
     51 O         -74.7414   23.6138  -74.8744 O.2       4 UNK        -0.5105 
     52 CA        -76.4501   22.0395  -75.4591 C.3       4 UNK         0.0263 
     53 CB        -76.6173   21.0046  -74.3359 C.3       4 UNK        -0.1981 
     54 N         -77.7075   22.1628  -76.2027 N.am      4 UNK        -0.4224 
     55 C         -77.8844   22.9394  -77.2804 C.2       3 UNK         0.4895 
     56 O         -76.9838   23.6033  -77.7946 O.2       3 UNK        -0.5091 
     57 CA        -79.3068   23.0520  -77.8555 C.3       3 UNK         0.0250 
     58 CB        -80.2651   21.9281  -77.3976 C.3       3 UNK        -0.1996 
     59 N         -79.8886   24.3741  -77.5852 N.am      3 UNK        -0.4254 
     60 C         -80.0985   24.9347  -76.3837 C.2       2 UNK         0.5004 
     61 O         -79.7921   24.3979  -75.3153 O.2       2 UNK        -0.5226 
     62 CA        -80.7501   26.3284  -76.3682 C.3       2 UNK         0.0269 
     63 CB        -81.8718   26.4772  -77.4204 C.3       2 UNK        -0.1926 
     64 N         -81.2815   26.5859  -75.0311 N.am      2 UNK        -0.4687 
     65 C         -81.5817   27.7843  -74.5134 C.2       1 UNK         0.5165 
     66 O         -81.4112   28.8442  -75.1159 O.2       1 UNK        -0.5079 
     67 H67       -84.3008   27.0265  -75.2557 H         1 UNK         0.0900 
     68 H68       -85.8076   26.4889  -74.5279 H         1 UNK         0.0900 
     69 H69       -85.0300   27.9412  -73.9218 H         1 UNK         0.0900 
     70 H70       -82.4374   25.9445  -72.1256 H         1 UNK         0.2959 
     71 H71       -82.9767   28.5874  -73.1092 H         1 UNK         0.1079 
     72 H72       -80.2070   27.7121  -72.2338 H         1 UNK         0.0837 
     73 H73       -81.4880   27.7087  -71.0549 H         1 UNK         0.0837 
     74 H74       -80.6997   29.4098  -69.3786 H         1 UNK         0.0685 
     75 H75       -80.0985   31.0043  -69.7580 H         1 UNK         0.0685 
     76 H76       -79.3143   27.3947  -69.8556 H         1 UNK         0.1434 
     77 H77       -75.1903   27.9550  -70.8862 H         1 UNK         0.1329 
     78 H78       -77.8320   31.3262  -70.7138 H         1 UNK         0.1335 
     79 H79       -74.3130   30.3369  -70.6921 H         1 UNK         0.0680 
     80 H80       -75.4274   31.6748  -70.8717 H         1 UNK         0.0680 
     81 H81       -73.6302   32.5157  -72.3233 H         1 UNK         0.1032 
     82 H82       -73.9634   32.5115  -74.0213 H         1 UNK         0.1032 
     83 H83       -71.6329   32.1337  -73.7274 H         1 UNK         0.0461 
     84 H84       -70.5075   29.0677  -71.5566 H         1 UNK         0.3453 
     85 H85       -70.8565   28.9922  -73.2660 H         1 UNK         0.3453 
     86 H86       -73.0602   29.7644  -74.7549 H         1 UNK         0.2984 
     87 H87       -72.3526   29.6373  -77.3376 H         1 UNK         0.0554 
     88 H88       -70.0657   30.1628  -78.1401 H         1 UNK         0.0847 
     89 H89       -70.4516   28.4809  -78.4642 H         1 UNK         0.0847 
     90 H90       -69.3857   28.8990  -77.1238 H         1 UNK         0.0847 
     91 H91       -72.6543   27.5446  -76.6879 H         1 UNK         0.3141 
     92 H92       -70.7966   25.1758  -74.9981 H         1 UNK         0.0743 
     93 H93       -71.6965   26.0722  -72.8633 H         1 UNK         0.0784 
     94 H94       -73.2564   26.3701  -73.6098 H         1 UNK         0.0784 
     95 H95       -72.6691   24.7182  -73.4115 H         1 UNK         0.0784 
     96 H96       -73.5312   25.0637  -75.7633 H         1 UNK         0.3213 
     97 H97       -73.0644   24.9069  -79.2832 H         1 UNK         0.0855 
     98 H98       -73.8330   22.6832  -77.3169 H         1 UNK         0.0814 
     99 H99       -72.6385   22.5599  -78.5986 H         1 UNK         0.0814 
    100 H100      -74.3352   22.7694  -79.0048 H         1 UNK         0.0814 
    101 H101      -75.4327   24.6332  -77.7789 H         1 UNK         0.3105 
    102 H102      -76.1545   28.1115  -77.2806 H         1 UNK         0.0547 
    103 H103      -78.2483   27.3160  -78.3341 H         1 UNK         0.0837 
    104 H104      -77.4325   25.8784  -78.9483 H         1 UNK         0.0837 
    105 H105      -76.9757   27.4684  -79.5295 H         1 UNK         0.0837 
    106 H106      -77.2602   25.5242  -76.4603 H         1 UNK         0.3020 
    107 H107      -75.7104   25.5123  -73.3024 H         1 UNK         0.1245 
    108 H108      -78.6464   26.2146  -73.7655 H         1 UNK         0.0781 
    109 H109      -77.5421   27.2263  -72.8997 H         1 UNK         0.0781 
    110 H110      -76.0032   25.7456  -70.5881 H         1 UNK         0.0836 
    111 H111      -77.2829   25.5876  -69.4085 H         1 UNK         0.0836 
    112 H112      -77.8589   24.0065  -74.5386 H         1 UNK         0.3022 
    113 H113      -75.6921   21.6715  -76.1528 H         1 UNK         0.0747 
    114 H114      -76.8908   20.0270  -74.7333 H         1 UNK         0.0793 
    115 H115      -75.6861   20.8781  -73.7814 H         1 UNK         0.0793 
    116 H116      -77.3843   21.3046  -73.6204 H         1 UNK         0.0793 
    117 H117      -78.5113   21.6823  -75.8251 H         1 UNK         0.3047 
    118 H118      -79.2002   22.9717  -78.9385 H         1 UNK         0.0822 
    119 H119      -81.2191   21.9967  -77.9206 H         1 UNK         0.0807 
    120 H120      -80.4783   21.9672  -76.3289 H         1 UNK         0.0807 
    121 H121      -79.8525   20.9429  -77.6198 H         1 UNK         0.0807 
    122 H122      -80.1536   24.9009  -78.4055 H         1 UNK         0.2946 
    123 H123      -79.9627   27.0568  -76.5731 H         1 UNK         0.1144 
    124 H124      -82.6424   25.7153  -77.2953 H         1 UNK         0.0793 
    125 H125      -81.4857   26.3951  -78.4367 H         1 UNK         0.0793 
    126 H126      -82.3572   27.4509  -77.3536 H         1 UNK         0.0793 
    127 H127      -81.3876   25.7590  -74.4561 H         1 UNK         0.2896 
@<TRIPOS>BOND
     1    1    2 1    
     2    1   67 1    
     3    1   68 1    
     4    1   69 1    
     5    2    3 2    
     6    2    4 am   BACKBONE|DICT|INTERRES
     7    4    5 1    
     8    4   70 1    
     9    5    6 1    
    10    5   65 1    
    11    5   71 1    
    12    6    7 1    
    13    6   72 1    
    14    6   73 1    
    15    7    8 1    
    16    8    9 1    
    17    8   74 1    
    18    8   75 1    
    19    9   10 ar   
    20    9   14 ar   
    21   10   11 ar   
    22   10   76 1    
    23   11   12 ar   
    24   11   48 1    
    25   12   13 ar   
    26   12   77 1    
    27   13   14 ar   
    28   13   15 1    
    29   14   78 1    
    30   15   16 1    
    31   15   79 1    
    32   15   80 1    
    33   16   17 1    
    34   17   18 1    
    35   17   81 1    
    36   17   82 1    
    37   18   19 1    
    38   18   22 1    
    39   18   83 1    
    40   19   20 am   BACKBONE|DICT|INTERRES
    41   19   21 2    
    42   20   84 1    
    43   20   85 1    
    44   22   23 am   BACKBONE|DICT|INTERRES
    45   22   86 1    
    46   23   24 2    
    47   23   25 1    
    48   25   26 1    
    49   25   27 1    
    50   25   87 1    
    51   26   88 1    
    52   26   89 1    
    53   26   90 1    
    54   27   28 am   BACKBONE|DICT|INTERRES
    55   27   91 1    
    56   28   29 2    
    57   28   30 1    
    58   30   31 1    
    59   30   32 1    
    60   30   92 1    
    61   31   93 1    
    62   31   94 1    
    63   31   95 1    
    64   32   33 am   BACKBONE|DICT|INTERRES
    65   32   96 1    
    66   33   34 2    
    67   33   35 1    
    68   35   36 1    
    69   35   37 1    
    70   35   97 1    
    71   36   98 1    
    72   36   99 1    
    73   36  100 1    
    74   37   38 am   BACKBONE|DICT|INTERRES
    75   37  101 1    
    76   38   39 2    
    77   38   40 1    
    78   40   41 1    
    79   40   42 1    
    80   40  102 1    
    81   41  103 1    
    82   41  104 1    
    83   41  105 1    
    84   42   43 am   BACKBONE|DICT|INTERRES
    85   42  106 1    
    86   43   44 2    
    87   43   45 1    
    88   45   46 1    
    89   45   49 1    
    90   45  107 1    
    91   46   47 1    
    92   46  108 1    
    93   46  109 1    
    94   47   48 1    
    95   48  110 1    
    96   48  111 1    
    97   49   50 am   BACKBONE|DICT|INTERRES
    98   49  112 1    
    99   50   51 2    
   100   50   52 1    
   101   52   53 1    
   102   52   54 1    
   103   52  113 1    
   104   53  114 1    
   105   53  115 1    
   106   53  116 1    
   107   54   55 am   BACKBONE|DICT|INTERRES
   108   54  117 1    
   109   55   56 2    
   110   55   57 1    
   111   57   58 1    
   112   57   59 1    
   113   57  118 1    
   114   58  119 1    
   115   58  120 1    
   116   58  121 1    
   117   59   60 am   BACKBONE|DICT|INTERRES
   118   59  122 1    
   119   60   61 2    
   120   60   62 1    
   121   62   63 1    
   122   62   64 1    
   123   62  123 1    
   124   63  124 1    
   125   63  125 1    
   126   63  126 1    
   127   64   65 am   BACKBONE|DICT|INTERRES
   128   64  127 1    
   129   65   66 2    
@<TRIPOS>SUBSTRUCTURE
     1 UNK         1 GROUP             0       ****    0 ROOT    
