@<TRIPOS>MOLECULE
3R135
127   129    1
SMALL
USER_CHARGES


@<TRIPOS>ATOM
      1 CA        -80.3055   22.0757  -71.4549 C.3       0 UNK        -0.1998 
      2 C         -80.4073   23.3676  -72.2489 C.2       0 UNK         0.4909 
      3 O         -80.1164   23.3723  -73.4449 O.2       0 UNK        -0.5240 
      4 N         -80.8441   24.4589  -71.6040 N.am      1 UNK        -0.4739 
      5 CA        -80.9250   25.8375  -72.1271 C.3       1 UNK         0.0864 
      6 C6        -79.5349   26.4868  -72.3685 C.3       11 UNK        -0.0881 
      7 S7        -78.4029   26.3904  -70.9405 S.3       11 UNK        -0.2682 
      8 C8        -76.8421   26.9596  -71.6908 C.3       11 UNK         0.0289 
      9 C9        -76.8419   28.4602  -71.9368 C.ar      11 UNK        -0.0687 
     10 C10       -77.3885   28.9857  -73.1096 C.ar      11 UNK        -0.0823 
     11 C11       -77.3918   30.3633  -73.3447 C.ar      11 UNK        -0.0830 
     12 C12       -76.8091   31.2177  -72.4000 C.ar      11 UNK        -0.1021 
     13 C13       -76.2628   30.7041  -71.2180 C.ar      11 UNK        -0.0753 
     14 C14       -76.2909   29.3256  -70.9907 C.ar      11 UNK        -0.0933 
     15 C15       -75.6918   31.6303  -70.1528 C.3       11 UNK         0.0166 
     16 S16       -73.9138   31.3531  -69.8628 S.3       11 UNK        -0.2615 
     17 C17       -73.1522   32.2994  -71.2263 C.3       11 UNK        -0.0865 
     18 CA        -72.1186   31.5356  -72.1047 C.3       10 UNK         0.0862 
     19 C         -70.8655   30.9934  -71.3472 C.2       10 UNK         0.5551 
     20 N         -70.2299   29.9175  -71.7979 N.am      10 UNK        -0.7319 
     21 O         -70.4239   31.5905  -70.3681 O.2       10 UNK        -0.5018 
     22 N         -72.7379   30.6428  -73.0974 N.am      10 UNK        -0.4509 
     23 C         -73.1751   29.3857  -72.9405 C.2       10 UNK         0.4899 
     24 O         -73.1770   28.7687  -71.8748 O.2       10 UNK        -0.4839 
     25 CA        -73.6531   28.6674  -74.2218 C.3       9 UNK         0.0222 
     26 CB        -73.4854   29.5060  -75.5102 C.3       9 UNK        -0.1966 
     27 N         -73.0170   27.3576  -74.4102 N.am      9 UNK        -0.4218 
     28 C         -71.7002   27.0927  -74.3794 C.2       9 UNK         0.5020 
     29 O         -70.8249   27.9380  -74.1765 O.2       9 UNK        -0.5274 
     30 CA        -71.2759   25.6321  -74.6098 C.3       8 UNK         0.0270 
     31 CB        -71.2556   24.8657  -73.2770 C.3       8 UNK        -0.1976 
     32 N         -72.1086   24.9060  -75.5728 N.am      8 UNK        -0.4313 
     33 C         -72.1899   25.1727  -76.8839 C.2       8 UNK         0.5041 
     34 O         -71.5997   26.1063  -77.4296 O.2       8 UNK        -0.5577 
     35 CA        -73.0480   24.2320  -77.7456 C.3       7 UNK         0.0284 
     36 CB        -73.5322   22.9623  -77.0127 C.3       7 UNK        -0.1958 
     37 N         -74.2081   24.9717  -78.2317 N.am      7 UNK        -0.4454 
     38 C         -74.4708   25.2691  -79.5118 C.2       7 UNK         0.5089 
     39 O         -73.7474   24.9376  -80.4522 O.2       7 UNK        -0.5125 
     40 CA        -75.7711   26.0444  -79.8128 C.3       6 UNK         0.0408 
     41 CB        -76.7269   25.1864  -80.6587 C.3       6 UNK        -0.1791 
     42 N         -76.4682   26.4741  -78.5965 N.am      6 UNK        -0.4762 
     43 C         -76.1793   27.5939  -77.9142 C.2       6 UNK         0.5007 
     44 O         -75.3891   28.4420  -78.3259 O.2       6 UNK        -0.5032 
     45 CA        -76.8432   27.7834  -76.5280 C.3       5 UNK         0.0783 
     46 C46       -77.9440   28.8764  -76.5531 C.3       11 UNK        -0.0857 
     47 S47       -77.2604   30.5232  -76.1438 S.3       11 UNK        -0.2512 
     48 C48       -78.0918   30.9353  -74.5741 C.3       11 UNK         0.0225 
     49 N         -77.3158   26.5160  -75.9544 N.am      5 UNK        -0.4615 
     50 C         -76.5000   25.5415  -75.5263 C.2       4 UNK         0.5053 
     51 O         -75.2812   25.6868  -75.4183 O.2       4 UNK        -0.5105 
     52 CA        -77.1075   24.1555  -75.2369 C.3       4 UNK         0.0263 
     53 CB        -76.8812   23.7283  -73.7776 C.3       4 UNK        -0.1981 
     54 N         -78.5234   23.9888  -75.5931 N.am      4 UNK        -0.4224 
     55 C         -79.0014   23.9935  -76.8465 C.2       3 UNK         0.4895 
     56 O         -78.3114   24.2868  -77.8229 O.2       3 UNK        -0.5091 
     57 CA        -80.4741   23.6204  -77.0704 C.3       3 UNK         0.0250 
     58 CB        -80.6130   22.1042  -77.2875 C.3       3 UNK        -0.1996 
     59 N         -81.3613   24.0386  -75.9794 N.am      3 UNK        -0.4254 
     60 C         -82.5681   24.5991  -76.1627 C.2       2 UNK         0.5004 
     61 O         -83.0323   24.8705  -77.2711 O.2       2 UNK        -0.5226 
     62 CA        -83.4300   24.8956  -74.9177 C.3       2 UNK         0.0269 
     63 CB        -84.5093   23.8139  -74.7456 C.3       2 UNK        -0.1926 
     64 N         -82.6592   24.9961  -73.6778 N.am      2 UNK        -0.4687 
     65 C         -81.8224   25.9990  -73.3807 C.2       1 UNK         0.5165 
     66 O         -81.7270   27.0137  -74.0734 O.2       1 UNK        -0.5079 
     67 H67       -80.9421   21.3115  -71.8996 H         1 UNK         0.0900 
     68 H68       -79.2781   21.7131  -71.4665 H         1 UNK         0.0900 
     69 H69       -80.6071   22.2098  -70.4164 H         1 UNK         0.0900 
     70 H70       -81.0880   24.3710  -70.6270 H         1 UNK         0.2959 
     71 H71       -81.4215   26.4177  -71.3477 H         1 UNK         0.1079 
     72 H72       -79.0511   26.0380  -73.2369 H         1 UNK         0.0837 
     73 H73       -79.6670   27.5445  -72.5996 H         1 UNK         0.0837 
     74 H74       -76.0175   26.6927  -71.0279 H         1 UNK         0.0685 
     75 H75       -76.6561   26.4322  -72.6257 H         1 UNK         0.0685 
     76 H76       -77.8318   28.3154  -73.8281 H         1 UNK         0.1434 
     77 H77       -76.8119   32.2861  -72.5672 H         1 UNK         0.1329 
     78 H78       -75.8717   28.9267  -70.0771 H         1 UNK         0.1335 
     79 H79       -76.2248   31.4515  -69.2180 H         1 UNK         0.0680 
     80 H80       -75.8656   32.6781  -70.4030 H         1 UNK         0.0680 
     81 H81       -73.9357   32.7039  -71.8684 H         1 UNK         0.1032 
     82 H82       -72.6720   33.1728  -70.7817 H         1 UNK         0.1032 
     83 H83       -71.6786   32.3072  -72.7375 H         1 UNK         0.0461 
     84 H84       -69.4105   29.5908  -71.3117 H         1 UNK         0.3453 
     85 H85       -70.5775   29.4059  -72.6001 H         1 UNK         0.3453 
     86 H86       -72.7621   31.0149  -74.0352 H         1 UNK         0.2984 
     87 H87       -74.7142   28.4720  -74.0747 H         1 UNK         0.0554 
     88 H88       -74.1091   30.4008  -75.4894 H         1 UNK         0.0847 
     89 H89       -73.7787   28.9340  -76.3878 H         1 UNK         0.0847 
     90 H90       -72.4507   29.8122  -75.6705 H         1 UNK         0.0847 
     91 H91       -73.6539   26.5894  -74.5992 H         1 UNK         0.3141 
     92 H92       -70.2580   25.6498  -75.0055 H         1 UNK         0.0743 
     93 H93       -70.6233   25.3725  -72.5463 H         1 UNK         0.0784 
     94 H94       -72.2527   24.7839  -72.8422 H         1 UNK         0.0784 
     95 H95       -70.8581   23.8584  -73.4026 H         1 UNK         0.0784 
     96 H96       -72.6464   24.1312  -75.2129 H         1 UNK         0.3213 
     97 H97       -72.4185   23.9146  -78.5796 H         1 UNK         0.0855 
     98 H98       -74.1703   23.1913  -76.1593 H         1 UNK         0.0814 
     99 H99       -72.6902   22.3687  -76.6536 H         1 UNK         0.0814 
    100 H100      -74.1049   22.3225  -77.6844 H         1 UNK         0.0814 
    101 H101      -74.8146   25.3503  -77.5159 H         1 UNK         0.3105 
    102 H102      -75.4999   26.9225  -80.4026 H         1 UNK         0.0547 
    103 H103      -77.6522   25.7189  -80.8781 H         1 UNK         0.0837 
    104 H104      -76.2720   24.9220  -81.6142 H         1 UNK         0.0837 
    105 H105      -76.9866   24.2546  -80.1553 H         1 UNK         0.0837 
    106 H106      -77.1417   25.8135  -78.2157 H         1 UNK         0.3020 
    107 H107      -76.0461   28.1263  -75.8690 H         1 UNK         0.1245 
    108 H108      -78.7457   28.6415  -75.8524 H         1 UNK         0.0781 
    109 H109      -78.4350   28.9326  -77.5269 H         1 UNK         0.0781 
    110 H110      -79.1280   30.5952  -74.5984 H         1 UNK         0.0836 
    111 H111      -78.1423   32.0227  -74.5005 H         1 UNK         0.0836 
    112 H112      -78.2999   26.3106  -76.0452 H         1 UNK         0.3022 
    113 H113      -76.5474   23.4580  -75.8624 H         1 UNK         0.0747 
    114 H114      -77.1218   22.6743  -73.6379 H         1 UNK         0.0793 
    115 H115      -75.8404   23.8619  -73.4789 H         1 UNK         0.0793 
    116 H116      -77.4972   24.2969  -73.0839 H         1 UNK         0.0793 
    117 H117      -79.1431   23.7320  -74.8241 H         1 UNK         0.3047 
    118 H118      -80.7683   24.1199  -77.9961 H         1 UNK         0.0822 
    119 H119      -79.9590   21.7608  -78.0905 H         1 UNK         0.0807 
    120 H120      -81.6327   21.8366  -77.5647 H         1 UNK         0.0807 
    121 H121      -80.3520   21.5439  -76.3887 H         1 UNK         0.0807 
    122 H122      -81.0501   23.8442  -75.0312 H         1 UNK         0.2946 
    123 H123      -83.9271   25.8530  -75.0908 H         1 UNK         0.1144 
    124 H124      -85.1764   24.0466  -73.9154 H         1 UNK         0.0793 
    125 H125      -84.0711   22.8321  -74.5613 H         1 UNK         0.0793 
    126 H126      -85.1267   23.7320  -75.6414 H         1 UNK         0.0793 
    127 H127      -82.6711   24.1949  -73.0629 H         1 UNK         0.2896 
@<TRIPOS>BOND
     1    1    2 1    
     2    1   67 1    
     3    1   68 1    
     4    1   69 1    
     5    2    3 2    
     6    2    4 am   BACKBONE|DICT|INTERRES
     7    4    5 1    
     8    4   70 1    
     9    5    6 1    
    10    5   65 1    
    11    5   71 1    
    12    6    7 1    
    13    6   72 1    
    14    6   73 1    
    15    7    8 1    
    16    8    9 1    
    17    8   74 1    
    18    8   75 1    
    19    9   10 ar   
    20    9   14 ar   
    21   10   11 ar   
    22   10   76 1    
    23   11   12 ar   
    24   11   48 1    
    25   12   13 ar   
    26   12   77 1    
    27   13   14 ar   
    28   13   15 1    
    29   14   78 1    
    30   15   16 1    
    31   15   79 1    
    32   15   80 1    
    33   16   17 1    
    34   17   18 1    
    35   17   81 1    
    36   17   82 1    
    37   18   19 1    
    38   18   22 1    
    39   18   83 1    
    40   19   20 am   BACKBONE|DICT|INTERRES
    41   19   21 2    
    42   20   84 1    
    43   20   85 1    
    44   22   23 am   BACKBONE|DICT|INTERRES
    45   22   86 1    
    46   23   24 2    
    47   23   25 1    
    48   25   26 1    
    49   25   27 1    
    50   25   87 1    
    51   26   88 1    
    52   26   89 1    
    53   26   90 1    
    54   27   28 am   BACKBONE|DICT|INTERRES
    55   27   91 1    
    56   28   29 2    
    57   28   30 1    
    58   30   31 1    
    59   30   32 1    
    60   30   92 1    
    61   31   93 1    
    62   31   94 1    
    63   31   95 1    
    64   32   33 am   BACKBONE|DICT|INTERRES
    65   32   96 1    
    66   33   34 2    
    67   33   35 1    
    68   35   36 1    
    69   35   37 1    
    70   35   97 1    
    71   36   98 1    
    72   36   99 1    
    73   36  100 1    
    74   37   38 am   BACKBONE|DICT|INTERRES
    75   37  101 1    
    76   38   39 2    
    77   38   40 1    
    78   40   41 1    
    79   40   42 1    
    80   40  102 1    
    81   41  103 1    
    82   41  104 1    
    83   41  105 1    
    84   42   43 am   BACKBONE|DICT|INTERRES
    85   42  106 1    
    86   43   44 2    
    87   43   45 1    
    88   45   46 1    
    89   45   49 1    
    90   45  107 1    
    91   46   47 1    
    92   46  108 1    
    93   46  109 1    
    94   47   48 1    
    95   48  110 1    
    96   48  111 1    
    97   49   50 am   BACKBONE|DICT|INTERRES
    98   49  112 1    
    99   50   51 2    
   100   50   52 1    
   101   52   53 1    
   102   52   54 1    
   103   52  113 1    
   104   53  114 1    
   105   53  115 1    
   106   53  116 1    
   107   54   55 am   BACKBONE|DICT|INTERRES
   108   54  117 1    
   109   55   56 2    
   110   55   57 1    
   111   57   58 1    
   112   57   59 1    
   113   57  118 1    
   114   58  119 1    
   115   58  120 1    
   116   58  121 1    
   117   59   60 am   BACKBONE|DICT|INTERRES
   118   59  122 1    
   119   60   61 2    
   120   60   62 1    
   121   62   63 1    
   122   62   64 1    
   123   62  123 1    
   124   63  124 1    
   125   63  125 1    
   126   63  126 1    
   127   64   65 am   BACKBONE|DICT|INTERRES
   128   64  127 1    
   129   65   66 2    
@<TRIPOS>SUBSTRUCTURE
     1 UNK         1 GROUP             0       ****    0 ROOT    
