@<TRIPOS>MOLECULE
3R135
127   129    1
SMALL
USER_CHARGES


@<TRIPOS>ATOM
      1 CA        -83.5180   25.6466  -71.4390 C.3       0 UNK        -0.1998 
      2 C         -83.3308   26.6195  -72.5929 C.2       0 UNK         0.4909 
      3 O         -84.2710   26.8648  -73.3502 O.2       0 UNK        -0.5240 
      4 N         -82.1195   27.1690  -72.7437 N.am      1 UNK        -0.4739 
      5 CA        -81.7351   28.1133  -73.8009 C.3       1 UNK         0.0864 
      6 C6        -80.5548   29.0123  -73.3531 C.3       11 UNK        -0.0881 
      7 S7        -81.0354   30.1496  -72.0078 S.3       11 UNK        -0.2682 
      8 C8        -80.2899   29.3689  -70.5370 C.3       11 UNK         0.0289 
      9 C9        -78.7677   29.3293  -70.5953 C.ar      11 UNK        -0.0687 
     10 C10       -78.0892   28.1118  -70.4837 C.ar      11 UNK        -0.0823 
     11 C11       -76.6924   28.0661  -70.5501 C.ar      11 UNK        -0.0830 
     12 C12       -75.9734   29.2552  -70.7146 C.ar      11 UNK        -0.1021 
     13 C13       -76.6396   30.4791  -70.8157 C.ar      11 UNK        -0.0753 
     14 C14       -78.0352   30.5099  -70.7501 C.ar      11 UNK        -0.0933 
     15 C15       -75.8614   31.7739  -70.9871 C.3       11 UNK         0.0166 
     16 S16       -75.6083   32.1711  -72.7471 S.3       11 UNK        -0.2615 
     17 C17       -73.8839   31.6435  -73.0492 C.3       11 UNK        -0.0865 
     18 CA        -73.7426   30.3749  -73.9376 C.3       10 UNK         0.0862 
     19 C         -73.9349   30.6537  -75.4621 C.2       10 UNK         0.5551 
     20 N         -73.1044   30.1147  -76.3492 N.am      10 UNK        -0.7319 
     21 O         -74.8506   31.3690  -75.8590 O.2       10 UNK        -0.5018 
     22 N         -72.4621   29.7102  -73.6613 N.am      10 UNK        -0.4509 
     23 C         -72.2813   28.6151  -72.9210 C.2       10 UNK         0.4899 
     24 O         -73.1711   28.0289  -72.3052 O.2       10 UNK        -0.4839 
     25 CA        -70.8458   28.0653  -72.8897 C.3       9 UNK         0.0222 
     26 CB        -70.4555   27.5805  -71.4821 C.3       9 UNK        -0.1966 
     27 N         -70.6923   26.9637  -73.8392 N.am      9 UNK        -0.4218 
     28 C         -70.7595   27.0687  -75.1738 C.2       9 UNK         0.5020 
     29 O         -70.8791   28.1421  -75.7712 O.2       9 UNK        -0.5274 
     30 CA        -70.6721   25.7659  -75.9836 C.3       8 UNK         0.0270 
     31 CB        -70.7611   24.4749  -75.1380 C.3       8 UNK        -0.1976 
     32 N         -71.7312   25.7634  -76.9887 N.am      8 UNK        -0.4313 
     33 C         -71.6519   25.1783  -78.1910 C.2       8 UNK         0.5041 
     34 O         -70.6303   24.6273  -78.6062 O.2       8 UNK        -0.5577 
     35 CA        -72.9080   25.1783  -79.0842 C.3       7 UNK         0.0284 
     36 CB        -73.2275   23.7582  -79.5861 C.3       7 UNK        -0.1958 
     37 N         -74.0825   25.6893  -78.3780 N.am      7 UNK        -0.4454 
     38 C         -74.6697   26.8724  -78.5996 C.2       7 UNK         0.5089 
     39 O         -74.3149   27.6586  -79.4784 O.2       7 UNK        -0.5125 
     40 CA        -75.8511   27.2573  -77.6862 C.3       6 UNK         0.0408 
     41 CB        -77.1846   27.0958  -78.4330 C.3       6 UNK        -0.1791 
     42 N         -75.9154   26.5018  -76.4313 N.am      6 UNK        -0.4762 
     43 C         -74.9952   26.5592  -75.4559 C.2       6 UNK         0.5007 
     44 O         -73.9647   27.2211  -75.5369 O.2       6 UNK        -0.5032 
     45 CA        -75.2325   25.6813  -74.2122 C.3       5 UNK         0.0783 
     46 C46       -76.1865   26.4295  -73.2516 C.3       11 UNK        -0.0857 
     47 S47       -76.5042   25.5253  -71.6999 S.3       11 UNK        -0.2512 
     48 C48       -75.9557   26.7341  -70.4477 C.3       11 UNK         0.0225 
     49 N         -75.7399   24.3465  -74.5515 N.am      5 UNK        -0.4615 
     50 C         -75.2469   23.5020  -75.4692 C.2       4 UNK         0.5053 
     51 O         -74.2009   23.6944  -76.0879 O.2       4 UNK        -0.5105 
     52 CA        -76.0960   22.2611  -75.8073 C.3       4 UNK         0.0263 
     53 CB        -75.5272   21.0201  -75.1014 C.3       4 UNK        -0.1981 
     54 N         -77.5289   22.3822  -75.4962 N.am      4 UNK        -0.4224 
     55 C         -78.3525   23.3478  -75.9322 C.2       3 UNK         0.4895 
     56 O         -77.9922   24.2872  -76.6482 O.2       3 UNK        -0.5091 
     57 CA        -79.8058   23.2712  -75.4451 C.3       3 UNK         0.0250 
     58 CB        -79.8956   23.3324  -73.9064 C.3       3 UNK        -0.1996 
     59 N         -80.5478   24.3951  -76.0032 N.am      3 UNK        -0.4254 
     60 C         -81.8423   24.4143  -76.3259 C.2       2 UNK         0.5004 
     61 O         -82.5943   23.4440  -76.2139 O.2       2 UNK        -0.5226 
     62 CA        -82.3881   25.7754  -76.7956 C.3       2 UNK         0.0269 
     63 CB        -83.7797   25.6639  -77.4455 C.3       2 UNK        -0.1926 
     64 N         -82.4677   26.6982  -75.6618 N.am      2 UNK        -0.4687 
     65 C         -81.4358   27.3498  -75.1090 C.2       1 UNK         0.5165 
     66 O         -80.2920   27.3188  -75.5690 O.2       1 UNK        -0.5079 
     67 H67       -84.3093   25.9980  -70.7773 H         1 UNK         0.0900 
     68 H68       -82.6086   25.5326  -70.8494 H         1 UNK         0.0900 
     69 H69       -83.8014   24.6654  -71.8190 H         1 UNK         0.0900 
     70 H70       -81.3785   26.9060  -72.1113 H         1 UNK         0.2959 
     71 H71       -82.5836   28.7680  -74.0143 H         1 UNK         0.1079 
     72 H72       -79.6939   28.4101  -73.0574 H         1 UNK         0.0837 
     73 H73       -80.2130   29.6332  -74.1836 H         1 UNK         0.0837 
     74 H74       -80.7047   28.3673  -70.4171 H         1 UNK         0.0685 
     75 H75       -80.5910   29.9321  -69.6528 H         1 UNK         0.0685 
     76 H76       -78.6453   27.1930  -70.3575 H         1 UNK         0.1434 
     77 H77       -74.8937   29.2311  -70.7694 H         1 UNK         0.1329 
     78 H78       -78.5557   31.4544  -70.8325 H         1 UNK         0.1335 
     79 H79       -76.4143   32.5945  -70.5274 H         1 UNK         0.0680 
     80 H80       -74.9126   31.7232  -70.4519 H         1 UNK         0.0680 
     81 H81       -73.3384   32.4796  -73.4905 H         1 UNK         0.1032 
     82 H82       -73.4040   31.4726  -72.0851 H         1 UNK         0.1032 
     83 H83       -74.5472   29.6850  -73.6758 H         1 UNK         0.0461 
     84 H84       -73.2448   30.3039  -77.3279 H         1 UNK         0.3453 
     85 H85       -72.4071   29.4348  -76.0639 H         1 UNK         0.3453 
     86 H86       -71.6734   30.0712  -74.1800 H         1 UNK         0.2984 
     87 H87       -70.1546   28.8620  -73.1729 H         1 UNK         0.0554 
     88 H88       -69.4153   27.2560  -71.4474 H         1 UNK         0.0847 
     89 H89       -71.0781   26.7486  -71.1500 H         1 UNK         0.0847 
     90 H90       -70.5684   28.3818  -70.7506 H         1 UNK         0.0847 
     91 H91       -70.6169   26.0387  -73.4428 H         1 UNK         0.3141 
     92 H92       -69.7014   25.7866  -76.4830 H         1 UNK         0.0743 
     93 H93       -69.9444   24.4066  -74.4185 H         1 UNK         0.0784 
     94 H94       -71.7045   24.4121  -74.5933 H         1 UNK         0.0784 
     95 H95       -70.6941   23.5893  -75.7704 H         1 UNK         0.0784 
     96 H96       -72.5743   26.2670  -76.7277 H         1 UNK         0.3213 
     97 H97       -72.6812   25.8029  -79.9506 H         1 UNK         0.0855 
     98 H98       -73.4117   23.0719  -78.7584 H         1 UNK         0.0814 
     99 H99       -72.4012   23.3513  -80.1702 H         1 UNK         0.0814 
    100 H100      -74.1082   23.7534  -80.2283 H         1 UNK         0.0814 
    101 H101      -74.4108   25.1189  -77.6053 H         1 UNK         0.3105 
    102 H102      -75.7297   28.3116  -77.4286 H         1 UNK         0.0547 
    103 H103      -77.3630   26.0580  -78.7172 H         1 UNK         0.0837 
    104 H104      -78.0255   27.4244  -77.8215 H         1 UNK         0.0837 
    105 H105      -77.1961   27.6913  -79.3469 H         1 UNK         0.0837 
    106 H106      -76.6994   25.8638  -76.3288 H         1 UNK         0.3020 
    107 H107      -74.2674   25.5514  -73.7175 H         1 UNK         0.1245 
    108 H108      -77.1518   26.6143  -73.7279 H         1 UNK         0.0781 
    109 H109      -75.7756   27.4136  -73.0187 H         1 UNK         0.0781 
    110 H110      -76.1197   26.3138  -69.4548 H         1 UNK         0.0836 
    111 H111      -74.8784   26.8756  -70.5467 H         1 UNK         0.0836 
    112 H112      -76.5934   24.0813  -74.0838 H         1 UNK         0.3022 
    113 H113      -76.0144   22.1086  -76.8854 H         1 UNK         0.0747 
    114 H114      -74.4695   20.8882  -75.3351 H         1 UNK         0.0793 
    115 H115      -76.0408   20.1117  -75.4171 H         1 UNK         0.0793 
    116 H116      -75.6138   21.0977  -74.0169 H         1 UNK         0.0793 
    117 H117      -77.9149   21.6567  -74.9089 H         1 UNK         0.3047 
    118 H118      -80.2321   22.3327  -75.8059 H         1 UNK         0.0822 
    119 H119      -79.4035   22.4790  -73.4391 H         1 UNK         0.0807 
    120 H120      -80.9330   23.3217  -73.5711 H         1 UNK         0.0807 
    121 H121      -79.4305   24.2373  -73.5121 H         1 UNK         0.0807 
    122 H122      -79.9993   25.2382  -76.1415 H         1 UNK         0.2946 
    123 H123      -81.6969   26.1759  -77.5412 H         1 UNK         0.1144 
    124 H124      -84.5278   25.2959  -76.7420 H         1 UNK         0.0793 
    125 H125      -83.7606   24.9765  -78.2923 H         1 UNK         0.0793 
    126 H126      -84.1198   26.6295  -77.8202 H         1 UNK         0.0793 
    127 H127      -83.3483   26.7225  -75.1569 H         1 UNK         0.2896 
@<TRIPOS>BOND
     1    1    2 1    
     2    1   67 1    
     3    1   68 1    
     4    1   69 1    
     5    2    3 2    
     6    2    4 am   BACKBONE|DICT|INTERRES
     7    4    5 1    
     8    4   70 1    
     9    5    6 1    
    10    5   65 1    
    11    5   71 1    
    12    6    7 1    
    13    6   72 1    
    14    6   73 1    
    15    7    8 1    
    16    8    9 1    
    17    8   74 1    
    18    8   75 1    
    19    9   10 ar   
    20    9   14 ar   
    21   10   11 ar   
    22   10   76 1    
    23   11   12 ar   
    24   11   48 1    
    25   12   13 ar   
    26   12   77 1    
    27   13   14 ar   
    28   13   15 1    
    29   14   78 1    
    30   15   16 1    
    31   15   79 1    
    32   15   80 1    
    33   16   17 1    
    34   17   18 1    
    35   17   81 1    
    36   17   82 1    
    37   18   19 1    
    38   18   22 1    
    39   18   83 1    
    40   19   20 am   BACKBONE|DICT|INTERRES
    41   19   21 2    
    42   20   84 1    
    43   20   85 1    
    44   22   23 am   BACKBONE|DICT|INTERRES
    45   22   86 1    
    46   23   24 2    
    47   23   25 1    
    48   25   26 1    
    49   25   27 1    
    50   25   87 1    
    51   26   88 1    
    52   26   89 1    
    53   26   90 1    
    54   27   28 am   BACKBONE|DICT|INTERRES
    55   27   91 1    
    56   28   29 2    
    57   28   30 1    
    58   30   31 1    
    59   30   32 1    
    60   30   92 1    
    61   31   93 1    
    62   31   94 1    
    63   31   95 1    
    64   32   33 am   BACKBONE|DICT|INTERRES
    65   32   96 1    
    66   33   34 2    
    67   33   35 1    
    68   35   36 1    
    69   35   37 1    
    70   35   97 1    
    71   36   98 1    
    72   36   99 1    
    73   36  100 1    
    74   37   38 am   BACKBONE|DICT|INTERRES
    75   37  101 1    
    76   38   39 2    
    77   38   40 1    
    78   40   41 1    
    79   40   42 1    
    80   40  102 1    
    81   41  103 1    
    82   41  104 1    
    83   41  105 1    
    84   42   43 am   BACKBONE|DICT|INTERRES
    85   42  106 1    
    86   43   44 2    
    87   43   45 1    
    88   45   46 1    
    89   45   49 1    
    90   45  107 1    
    91   46   47 1    
    92   46  108 1    
    93   46  109 1    
    94   47   48 1    
    95   48  110 1    
    96   48  111 1    
    97   49   50 am   BACKBONE|DICT|INTERRES
    98   49  112 1    
    99   50   51 2    
   100   50   52 1    
   101   52   53 1    
   102   52   54 1    
   103   52  113 1    
   104   53  114 1    
   105   53  115 1    
   106   53  116 1    
   107   54   55 am   BACKBONE|DICT|INTERRES
   108   54  117 1    
   109   55   56 2    
   110   55   57 1    
   111   57   58 1    
   112   57   59 1    
   113   57  118 1    
   114   58  119 1    
   115   58  120 1    
   116   58  121 1    
   117   59   60 am   BACKBONE|DICT|INTERRES
   118   59  122 1    
   119   60   61 2    
   120   60   62 1    
   121   62   63 1    
   122   62   64 1    
   123   62  123 1    
   124   63  124 1    
   125   63  125 1    
   126   63  126 1    
   127   64   65 am   BACKBONE|DICT|INTERRES
   128   64  127 1    
   129   65   66 2    
@<TRIPOS>SUBSTRUCTURE
     1 UNK         1 GROUP             0       ****    0 ROOT    
