@<TRIPOS>MOLECULE
3R135
127   129    1
SMALL
USER_CHARGES


@<TRIPOS>ATOM
      1 CA        -85.1232   28.2488  -73.8113 C.3       0 UNK        -0.1998 
      2 C         -83.7516   28.6217  -74.3534 C.2       0 UNK         0.4909 
      3 O         -83.6582   29.2033  -75.4346 O.2       0 UNK        -0.5240 
      4 N         -82.6866   28.2877  -73.6124 N.am      1 UNK        -0.4739 
      5 CA        -81.2894   28.5729  -73.9750 C.3       1 UNK         0.0864 
      6 C6        -80.3763   28.6287  -72.7267 C.3       11 UNK        -0.0881 
      7 S7        -80.7993   30.0564  -71.6611 S.3       11 UNK        -0.2682 
      8 C8        -80.2023   29.5405  -70.0162 C.3       11 UNK         0.0289 
      9 C9        -78.7678   29.0398  -70.0704 C.ar      11 UNK        -0.0687 
     10 C10       -78.5065   27.6742  -69.9459 C.ar      11 UNK        -0.0823 
     11 C11       -77.2142   27.1801  -70.1377 C.ar      11 UNK        -0.0830 
     12 C12       -76.1661   28.0693  -70.3920 C.ar      11 UNK        -0.1021 
     13 C13       -76.4131   29.4411  -70.4933 C.ar      11 UNK        -0.0753 
     14 C14       -77.7144   29.9237  -70.3229 C.ar      11 UNK        -0.0933 
     15 C15       -75.2866   30.3899  -70.8629 C.3       11 UNK         0.0166 
     16 S16       -75.0912   30.4489  -72.6698 S.3       11 UNK        -0.2615 
     17 C17       -73.7872   31.7129  -72.8530 C.3       11 UNK        -0.0865 
     18 CA        -72.4100   31.1505  -73.2985 C.3       10 UNK         0.0862 
     19 C         -71.6404   30.4194  -72.1582 C.2       10 UNK         0.5551 
     20 N         -70.9725   29.2997  -72.4108 N.am      10 UNK        -0.7319 
     21 O         -71.6279   30.8883  -71.0226 O.2       10 UNK        -0.5018 
     22 N         -72.5219   30.3697  -74.5413 N.am      10 UNK        -0.4509 
     23 C         -71.6907   30.4550  -75.5851 C.2       10 UNK         0.4899 
     24 O         -70.7650   31.2651  -75.6615 O.2       10 UNK        -0.4839 
     25 CA        -71.9332   29.4455  -76.7257 C.3       9 UNK         0.0222 
     26 CB        -70.8300   29.4868  -77.8036 C.3       9 UNK        -0.1966 
     27 N         -72.1272   28.0642  -76.2626 N.am      9 UNK        -0.4218 
     28 C         -71.3118   27.3480  -75.4695 C.2       9 UNK         0.5020 
     29 O         -70.3053   27.8084  -74.9290 O.2       9 UNK        -0.5274 
     30 CA        -71.6667   25.8708  -75.2096 C.3       8 UNK         0.0270 
     31 CB        -72.2080   25.6975  -73.7802 C.3       8 UNK        -0.1976 
     32 N         -72.6221   25.3025  -76.1649 N.am      8 UNK        -0.4313 
     33 C         -72.3791   25.0836  -77.4655 C.2       8 UNK         0.5041 
     34 O         -71.2822   25.2614  -77.9963 O.2       8 UNK        -0.5577 
     35 CA        -73.5688   24.6282  -78.3316 C.3       7 UNK         0.0284 
     36 CB        -73.6716   23.0955  -78.3488 C.3       7 UNK        -0.1958 
     37 N         -74.8514   25.2048  -77.9118 N.am      7 UNK        -0.4454 
     38 C         -75.1352   26.5165  -77.8986 C.2       7 UNK         0.5089 
     39 O         -74.3511   27.3936  -78.2601 O.2       7 UNK        -0.5125 
     40 CA        -76.5017   26.9203  -77.3264 C.3       6 UNK         0.0408 
     41 CB        -77.6178   26.7290  -78.3654 C.3       6 UNK        -0.1791 
     42 N         -76.8047   26.1740  -76.1041 N.am      6 UNK        -0.4762 
     43 C         -76.1908   26.3844  -74.9296 C.2       6 UNK         0.5007 
     44 O         -75.3637   27.2774  -74.7449 O.2       6 UNK        -0.5032 
     45 CA        -76.5096   25.4041  -73.7838 C.3       5 UNK         0.0783 
     46 C46       -77.7062   25.9007  -72.9484 C.3       11 UNK        -0.0857 
     47 S47       -77.9962   24.8641  -71.4678 S.3       11 UNK        -0.2512 
     48 C48       -76.9750   25.6787  -70.1881 C.3       11 UNK         0.0225 
     49 N         -76.7186   24.0416  -74.2749 N.am      5 UNK        -0.4615 
     50 C         -75.7486   23.2594  -74.7617 C.2       4 UNK         0.5053 
     51 O         -74.5700   23.6018  -74.8336 O.2       4 UNK        -0.5105 
     52 CA        -76.1677   21.8807  -75.2987 C.3       4 UNK         0.0263 
     53 CB        -76.1090   20.8303  -74.1788 C.3       4 UNK        -0.1981 
     54 N         -77.4995   21.8684  -75.9110 N.am      4 UNK        -0.4224 
     55 C         -77.8814   22.6304  -76.9458 C.2       3 UNK         0.4895 
     56 O         -77.1375   23.4349  -77.5095 O.2       3 UNK        -0.5091 
     57 CA        -79.3324   22.4869  -77.4380 C.3       3 UNK         0.0250 
     58 CB        -80.1426   21.3791  -76.7243 C.3       3 UNK        -0.1996 
     59 N         -80.0630   23.7593  -77.3956 N.am      3 UNK        -0.4254 
     60 C         -80.3177   24.5223  -76.3207 C.2       2 UNK         0.5004 
     61 O         -79.8766   24.2970  -75.1915 O.2       2 UNK        -0.5226 
     62 CA        -81.2679   25.7077  -76.5703 C.3       2 UNK         0.0269 
     63 CB        -82.6528   25.2092  -77.0268 C.3       2 UNK        -0.1926 
     64 N         -81.4712   26.5541  -75.3919 N.am      2 UNK        -0.4687 
     65 C         -80.7382   27.6291  -75.0724 C.2       1 UNK         0.5165 
     66 O         -79.6920   27.9272  -75.6479 O.2       1 UNK        -0.5079 
     67 H67       -85.0578   27.7435  -72.8479 H         1 UNK         0.0900 
     68 H68       -85.7314   29.1439  -73.6835 H         1 UNK         0.0900 
     69 H69       -85.6346   27.5857  -74.5085 H         1 UNK         0.0900 
     70 H70       -82.8229   27.8271  -72.7237 H         1 UNK         0.2959 
     71 H71       -81.2667   29.5661  -74.4303 H         1 UNK         0.1079 
     72 H72       -79.3283   28.7363  -73.0143 H         1 UNK         0.0837 
     73 H73       -80.4474   27.7003  -72.1573 H         1 UNK         0.0837 
     74 H74       -80.8687   28.7715  -69.6222 H         1 UNK         0.0685 
     75 H75       -80.2680   30.3862  -69.3304 H         1 UNK         0.0685 
     76 H76       -79.3212   26.9828  -69.7781 H         1 UNK         0.1434 
     77 H77       -75.1668   27.6941  -70.5673 H         1 UNK         0.1329 
     78 H78       -77.9181   30.9793  -70.4405 H         1 UNK         0.1335 
     79 H79       -74.3523   30.0650  -70.4023 H         1 UNK         0.0680 
     80 H80       -75.4947   31.3909  -70.4816 H         1 UNK         0.0680 
     81 H81       -73.6926   32.2939  -71.9337 H         1 UNK         0.1032 
     82 H82       -74.1344   32.4262  -73.6019 H         1 UNK         0.1032 
     83 H83       -71.7932   32.0271  -73.5038 H         1 UNK         0.0461 
     84 H84       -70.4739   28.8504  -71.6599 H         1 UNK         0.3453 
     85 H85       -70.9031   28.9287  -73.3514 H         1 UNK         0.3453 
     86 H86       -73.2460   29.6641  -74.5460 H         1 UNK         0.2984 
     87 H87       -72.8696   29.7410  -77.2011 H         1 UNK         0.0554 
     88 H88       -70.7421   30.4830  -78.2388 H         1 UNK         0.0847 
     89 H89       -71.0482   28.7964  -78.6186 H         1 UNK         0.0847 
     90 H90       -69.8550   29.2220  -77.3927 H         1 UNK         0.0847 
     91 H91       -72.9370   27.5954  -76.6532 H         1 UNK         0.3141 
     92 H92       -70.7394   25.3001  -75.2921 H         1 UNK         0.0743 
     93 H93       -71.4979   26.0763  -73.0437 H         1 UNK         0.0784 
     94 H94       -73.1440   26.2366  -73.6344 H         1 UNK         0.0784 
     95 H95       -72.3837   24.6475  -73.5460 H         1 UNK         0.0784 
     96 H96       -73.5216   25.0156  -75.7905 H         1 UNK         0.3213 
     97 H97       -73.3802   24.9685  -79.3521 H         1 UNK         0.0855 
     98 H98       -73.8057   22.6908  -77.3463 H         1 UNK         0.0814 
     99 H99       -72.7636   22.6509  -78.7582 H         1 UNK         0.0814 
    100 H100      -74.5057   22.7569  -78.9639 H         1 UNK         0.0814 
    101 H101      -75.5829   24.5544  -77.6340 H         1 UNK         0.3105 
    102 H102      -76.4605   27.9826  -77.0758 H         1 UNK         0.0547 
    103 H103      -78.5738   27.0869  -77.9859 H         1 UNK         0.0837 
    104 H104      -77.7392   25.6861  -78.6563 H         1 UNK         0.0837 
    105 H105      -77.4016   27.2945  -79.2727 H         1 UNK         0.0837 
    106 H106      -77.4328   25.3863  -76.1894 H         1 UNK         0.3020 
    107 H107      -75.6310   25.3921  -73.1343 H         1 UNK         0.1245 
    108 H108      -78.6177   25.8878  -73.5469 H         1 UNK         0.0781 
    109 H109      -77.5680   26.9443  -72.6666 H         1 UNK         0.0781 
    110 H110      -75.9248   25.4581  -70.3853 H         1 UNK         0.0836 
    111 H111      -77.2052   25.2432  -69.2150 H         1 UNK         0.0836 
    112 H112      -77.6728   23.7056  -74.2707 H         1 UNK         0.3022 
    113 H113      -75.4515   21.5953  -76.0707 H         1 UNK         0.0747 
    114 H114      -76.3148   19.8299  -74.5601 H         1 UNK         0.0793 
    115 H115      -75.1185   20.8032  -73.7221 H         1 UNK         0.0793 
    116 H116      -76.8273   21.0438  -73.3860 H         1 UNK         0.0793 
    117 H117      -78.1811   21.2454  -75.5028 H         1 UNK         0.3047 
    118 H118      -79.2592   22.2105  -78.4909 H         1 UNK         0.0822 
    119 H119      -81.1374   21.2851  -77.1602 H         1 UNK         0.0807 
    120 H120      -80.2726   21.5804  -75.6602 H         1 UNK         0.0807 
    121 H121      -79.6624   20.4049  -76.8272 H         1 UNK         0.0807 
    122 H122      -80.4431   24.0562  -78.2835 H         1 UNK         0.2946 
    123 H123      -80.8383   26.3148  -77.3704 H         1 UNK         0.1144 
    124 H124      -83.1083   24.5511  -76.2853 H         1 UNK         0.0793 
    125 H125      -82.5943   24.6530  -77.9630 H         1 UNK         0.0793 
    126 H126      -83.3359   26.0419  -77.1977 H         1 UNK         0.0793 
    127 H127      -82.2892   26.3603  -74.8337 H         1 UNK         0.2896 
@<TRIPOS>BOND
     1    1    2 1    
     2    1   67 1    
     3    1   68 1    
     4    1   69 1    
     5    2    3 2    
     6    2    4 am   BACKBONE|DICT|INTERRES
     7    4    5 1    
     8    4   70 1    
     9    5    6 1    
    10    5   65 1    
    11    5   71 1    
    12    6    7 1    
    13    6   72 1    
    14    6   73 1    
    15    7    8 1    
    16    8    9 1    
    17    8   74 1    
    18    8   75 1    
    19    9   10 ar   
    20    9   14 ar   
    21   10   11 ar   
    22   10   76 1    
    23   11   12 ar   
    24   11   48 1    
    25   12   13 ar   
    26   12   77 1    
    27   13   14 ar   
    28   13   15 1    
    29   14   78 1    
    30   15   16 1    
    31   15   79 1    
    32   15   80 1    
    33   16   17 1    
    34   17   18 1    
    35   17   81 1    
    36   17   82 1    
    37   18   19 1    
    38   18   22 1    
    39   18   83 1    
    40   19   20 am   BACKBONE|DICT|INTERRES
    41   19   21 2    
    42   20   84 1    
    43   20   85 1    
    44   22   23 am   BACKBONE|DICT|INTERRES
    45   22   86 1    
    46   23   24 2    
    47   23   25 1    
    48   25   26 1    
    49   25   27 1    
    50   25   87 1    
    51   26   88 1    
    52   26   89 1    
    53   26   90 1    
    54   27   28 am   BACKBONE|DICT|INTERRES
    55   27   91 1    
    56   28   29 2    
    57   28   30 1    
    58   30   31 1    
    59   30   32 1    
    60   30   92 1    
    61   31   93 1    
    62   31   94 1    
    63   31   95 1    
    64   32   33 am   BACKBONE|DICT|INTERRES
    65   32   96 1    
    66   33   34 2    
    67   33   35 1    
    68   35   36 1    
    69   35   37 1    
    70   35   97 1    
    71   36   98 1    
    72   36   99 1    
    73   36  100 1    
    74   37   38 am   BACKBONE|DICT|INTERRES
    75   37  101 1    
    76   38   39 2    
    77   38   40 1    
    78   40   41 1    
    79   40   42 1    
    80   40  102 1    
    81   41  103 1    
    82   41  104 1    
    83   41  105 1    
    84   42   43 am   BACKBONE|DICT|INTERRES
    85   42  106 1    
    86   43   44 2    
    87   43   45 1    
    88   45   46 1    
    89   45   49 1    
    90   45  107 1    
    91   46   47 1    
    92   46  108 1    
    93   46  109 1    
    94   47   48 1    
    95   48  110 1    
    96   48  111 1    
    97   49   50 am   BACKBONE|DICT|INTERRES
    98   49  112 1    
    99   50   51 2    
   100   50   52 1    
   101   52   53 1    
   102   52   54 1    
   103   52  113 1    
   104   53  114 1    
   105   53  115 1    
   106   53  116 1    
   107   54   55 am   BACKBONE|DICT|INTERRES
   108   54  117 1    
   109   55   56 2    
   110   55   57 1    
   111   57   58 1    
   112   57   59 1    
   113   57  118 1    
   114   58  119 1    
   115   58  120 1    
   116   58  121 1    
   117   59   60 am   BACKBONE|DICT|INTERRES
   118   59  122 1    
   119   60   61 2    
   120   60   62 1    
   121   62   63 1    
   122   62   64 1    
   123   62  123 1    
   124   63  124 1    
   125   63  125 1    
   126   63  126 1    
   127   64   65 am   BACKBONE|DICT|INTERRES
   128   64  127 1    
   129   65   66 2    
@<TRIPOS>SUBSTRUCTURE
     1 UNK         1 GROUP             0       ****    0 ROOT    
