@<TRIPOS>MOLECULE
3R135
127   129    1
SMALL
USER_CHARGES


@<TRIPOS>ATOM
      1 CA        -80.8918   21.9466  -72.5898 C.3       0 UNK        -0.1998 
      2 C         -81.4872   23.2589  -73.0749 C.2       0 UNK         0.4909 
      3 O         -82.0678   23.3041  -74.1600 O.2       0 UNK        -0.5240 
      4 N         -81.3372   24.3329  -72.2891 N.am      1 UNK        -0.4739 
      5 CA        -81.7889   25.6904  -72.6131 C.3       1 UNK         0.0864 
      6 C6        -81.6499   26.6676  -71.4161 C.3       11 UNK        -0.0881 
      7 S7        -80.0500   26.5828  -70.5310 S.3       11 UNK        -0.2682 
      8 C8        -79.8348   28.3043  -69.9814 C.3       11 UNK         0.0289 
      9 C9        -78.7046   28.9952  -70.7289 C.ar      11 UNK        -0.0687 
     10 C10       -78.9379   29.6180  -71.9599 C.ar      11 UNK        -0.0823 
     11 C11       -77.9025   30.2861  -72.6250 C.ar      11 UNK        -0.0830 
     12 C12       -76.6288   30.3230  -72.0493 C.ar      11 UNK        -0.1021 
     13 C13       -76.3829   29.6931  -70.8262 C.ar      11 UNK        -0.0753 
     14 C14       -77.4236   29.0314  -70.1704 C.ar      11 UNK        -0.0933 
     15 C15       -74.9907   29.7258  -70.2201 C.3       11 UNK         0.0166 
     16 S16       -74.0181   28.3084  -70.8051 S.3       11 UNK        -0.2615 
     17 C17       -72.3100   28.8963  -70.5354 C.3       11 UNK        -0.0865 
     18 CA        -71.8329   29.9726  -71.5527 C.3       10 UNK         0.0862 
     19 C         -70.3202   30.2829  -71.3531 C.2       10 UNK         0.5551 
     20 N         -69.4551   30.0416  -72.3304 N.am      10 UNK        -0.7319 
     21 O         -69.9272   30.7527  -70.2881 O.2       10 UNK        -0.5018 
     22 N         -72.2393   29.6502  -72.9303 N.am      10 UNK        -0.4509 
     23 C         -72.2735   30.4994  -73.9621 C.2       10 UNK         0.4899 
     24 O         -71.9030   31.6722  -73.8918 O.2       10 UNK        -0.4839 
     25 CA        -72.8180   29.9374  -75.2919 C.3       9 UNK         0.0222 
     26 CB        -72.7089   30.9436  -76.4528 C.3       9 UNK        -0.1966 
     27 N         -72.1738   28.6793  -75.6886 N.am      9 UNK        -0.4218 
     28 C         -72.4577   27.4749  -75.1774 C.2       9 UNK         0.5020 
     29 O         -73.2500   27.2983  -74.2515 O.2       9 UNK        -0.5274 
     30 CA        -71.7164   26.2741  -75.7687 C.3       8 UNK         0.0270 
     31 CB        -70.8499   25.5731  -74.7052 C.3       8 UNK        -0.1976 
     32 N         -72.7020   25.3474  -76.3184 N.am      8 UNK        -0.4313 
     33 C         -72.4604   24.4693  -77.2993 C.2       8 UNK         0.5041 
     34 O         -71.3498   24.2957  -77.8047 O.2       8 UNK        -0.5577 
     35 CA        -73.6575   23.6643  -77.8330 C.3       7 UNK         0.0284 
     36 CB        -74.0187   22.5066  -76.8877 C.3       7 UNK        -0.1958 
     37 N         -74.8314   24.5067  -78.0733 N.am      7 UNK        -0.4454 
     38 C         -74.9264   25.4023  -79.0674 C.2       7 UNK         0.5089 
     39 O         -74.0577   25.5693  -79.9243 O.2       7 UNK        -0.5125 
     40 CA        -76.2029   26.2603  -79.1241 C.3       6 UNK         0.0408 
     41 CB        -77.2989   25.5408  -79.9252 C.3       6 UNK        -0.1791 
     42 N         -76.7146   26.6202  -77.8000 N.am      6 UNK        -0.4762 
     43 C         -76.0903   27.4400  -76.9404 C.2       6 UNK         0.5007 
     44 O         -75.0500   28.0379  -77.2130 O.2       6 UNK        -0.5032 
     45 CA        -76.7166   27.5907  -75.5354 C.3       5 UNK         0.0783 
     46 C46       -77.8268   28.6721  -75.5244 C.3       11 UNK        -0.0857 
     47 S47       -77.1513   30.3522  -75.3187 S.3       11 UNK        -0.2512 
     48 C48       -78.1650   30.9987  -73.9468 C.3       11 UNK         0.0225 
     49 N         -77.2119   26.3178  -75.0025 N.am      5 UNK        -0.4615 
     50 C         -76.4745   25.2172  -74.8007 C.2       4 UNK         0.5053 
     51 O         -75.2682   25.1417  -75.0229 O.2       4 UNK        -0.5105 
     52 CA        -77.2315   23.9603  -74.3497 C.3       4 UNK         0.0263 
     53 CB        -77.5520   24.0084  -72.8467 C.3       4 UNK        -0.1981 
     54 N         -78.4574   23.7787  -75.1291 N.am      4 UNK        -0.4224 
     55 C         -78.4754   23.4306  -76.4248 C.2       3 UNK         0.4895 
     56 O         -77.4675   23.1417  -77.0694 O.2       3 UNK        -0.5091 
     57 CA        -79.8397   23.4482  -77.1333 C.3       3 UNK         0.0250 
     58 CB        -80.5504   22.0943  -76.9815 C.3       3 UNK        -0.1996 
     59 N         -80.7052   24.5299  -76.6524 N.am      3 UNK        -0.4254 
     60 C         -80.4894   25.8270  -76.9241 C.2       2 UNK         0.5004 
     61 O         -79.5686   26.2269  -77.6339 O.2       2 UNK        -0.5226 
     62 CA        -81.4185   26.8629  -76.2655 C.3       2 UNK         0.0269 
     63 CB        -82.6191   27.1639  -77.1758 C.3       2 UNK        -0.1926 
     64 N         -81.8977   26.4676  -74.9383 N.am      2 UNK        -0.4687 
     65 C         -81.1023   26.2144  -73.8901 C.2       1 UNK         0.5165 
     66 O         -79.8760   26.3238  -73.9295 O.2       1 UNK        -0.5079 
     67 H67       -80.4183   22.0503  -71.6137 H         1 UNK         0.0900 
     68 H68       -81.6709   21.1891  -72.5104 H         1 UNK         0.0900 
     69 H69       -80.1415   21.5912  -73.2957 H         1 UNK         0.0900 
     70 H70       -80.8214   24.2562  -71.4234 H         1 UNK         0.2959 
     71 H71       -82.8569   25.6126  -72.8292 H         1 UNK         0.1079 
     72 H72       -82.4287   26.4459  -70.6848 H         1 UNK         0.0837 
     73 H73       -81.8439   27.6912  -71.7423 H         1 UNK         0.0837 
     74 H74       -80.7606   28.8699  -70.0931 H         1 UNK         0.0685 
     75 H75       -79.6222   28.2982  -68.9112 H         1 UNK         0.0685 
     76 H76       -79.9283   29.5874  -72.3929 H         1 UNK         0.1434 
     77 H77       -75.8247   30.8356  -72.5600 H         1 UNK         0.1329 
     78 H78       -77.2351   28.5436  -69.2237 H         1 UNK         0.1335 
     79 H79       -75.0429   29.7067  -69.1305 H         1 UNK         0.0680 
     80 H80       -74.4991   30.6606  -70.4904 H         1 UNK         0.0680 
     81 H81       -72.2241   29.2718  -69.5138 H         1 UNK         0.1032 
     82 H82       -71.6605   28.0203  -70.5874 H         1 UNK         0.1032 
     83 H83       -72.3452   30.9024  -71.3011 H         1 UNK         0.0461 
     84 H84       -68.4786   30.2487  -72.1914 H         1 UNK         0.3453 
     85 H85       -69.7749   29.6688  -73.2094 H         1 UNK         0.3453 
     86 H86       -72.5979   28.7114  -73.0847 H         1 UNK         0.2984 
     87 H87       -73.8812   29.7420  -75.1344 H         1 UNK         0.0554 
     88 H88       -73.2336   31.8706  -76.2175 H         1 UNK         0.0847 
     89 H89       -73.1590   30.5453  -77.3626 H         1 UNK         0.0847 
     90 H90       -71.6717   31.2003  -76.6716 H         1 UNK         0.0847 
     91 H91       -71.4875   28.7429  -76.4267 H         1 UNK         0.3141 
     92 H92       -71.0683   26.6244  -76.5751 H         1 UNK         0.0743 
     93 H93       -71.4586   25.1690  -73.8951 H         1 UNK         0.0784 
     94 H94       -70.2783   24.7509  -75.1359 H         1 UNK         0.0784 
     95 H95       -70.1356   26.2686  -74.2629 H         1 UNK         0.0784 
     96 H96       -73.6407   25.4159  -75.9215 H         1 UNK         0.3213 
     97 H97       -73.3606   23.2282  -78.7894 H         1 UNK         0.0855 
     98 H98       -74.3181   22.8601  -75.9016 H         1 UNK         0.0814 
     99 H99       -73.1664   21.8405  -76.7479 H         1 UNK         0.0814 
    100 H100      -74.8363   21.9078  -77.2895 H         1 UNK         0.0814 
    101 H101      -75.6056   24.4126  -77.4270 H         1 UNK         0.3105 
    102 H102      -75.9562   27.1860  -79.6481 H         1 UNK         0.0547 
    103 H103      -78.1792   26.1716  -80.0483 H         1 UNK         0.0837 
    104 H104      -77.6141   24.6173  -79.4389 H         1 UNK         0.0837 
    105 H105      -76.9456   25.2799  -80.9237 H         1 UNK         0.0837 
    106 H106      -77.6227   26.2421  -77.5437 H         1 UNK         0.3020 
    107 H107      -75.9148   27.9004  -74.8601 H         1 UNK         0.1245 
    108 H108      -78.5186   28.4857  -74.7025 H         1 UNK         0.0781 
    109 H109      -78.4370   28.6372  -76.4290 H         1 UNK         0.0781 
    110 H110      -79.2186   30.9360  -74.2237 H         1 UNK         0.0836 
    111 H111      -77.9465   32.0600  -73.8216 H         1 UNK         0.0836 
    112 H112      -78.1939   26.2923  -74.7377 H         1 UNK         0.3022 
    113 H113      -76.5844   23.0984  -74.5273 H         1 UNK         0.0747 
    114 H114      -78.0350   23.0902  -72.5142 H         1 UNK         0.0793 
    115 H115      -76.6385   24.1224  -72.2615 H         1 UNK         0.0793 
    116 H116      -78.2033   24.8439  -72.5898 H         1 UNK         0.0793 
    117 H117      -79.3217   24.0709  -74.6963 H         1 UNK         0.3047 
    118 H118      -79.6559   23.6115  -78.1976 H         1 UNK         0.0822 
    119 H119      -81.5084   22.0878  -77.5015 H         1 UNK         0.0807 
    120 H120      -80.7337   21.8437  -75.9367 H         1 UNK         0.0807 
    121 H121      -79.9465   21.2908  -77.4053 H         1 UNK         0.0807 
    122 H122      -81.4552   24.2736  -76.0196 H         1 UNK         0.2946 
    123 H123      -80.8409   27.7822  -76.1464 H         1 UNK         0.1144 
    124 H124      -83.2541   26.2874  -77.3112 H         1 UNK         0.0793 
    125 H125      -82.2875   27.4822  -78.1655 H         1 UNK         0.0793 
    126 H126      -83.2347   27.9667  -76.7696 H         1 UNK         0.0793 
    127 H127      -82.8934   26.3257  -74.8430 H         1 UNK         0.2896 
@<TRIPOS>BOND
     1    1    2 1    
     2    1   67 1    
     3    1   68 1    
     4    1   69 1    
     5    2    3 2    
     6    2    4 am   BACKBONE|DICT|INTERRES
     7    4    5 1    
     8    4   70 1    
     9    5    6 1    
    10    5   65 1    
    11    5   71 1    
    12    6    7 1    
    13    6   72 1    
    14    6   73 1    
    15    7    8 1    
    16    8    9 1    
    17    8   74 1    
    18    8   75 1    
    19    9   10 ar   
    20    9   14 ar   
    21   10   11 ar   
    22   10   76 1    
    23   11   12 ar   
    24   11   48 1    
    25   12   13 ar   
    26   12   77 1    
    27   13   14 ar   
    28   13   15 1    
    29   14   78 1    
    30   15   16 1    
    31   15   79 1    
    32   15   80 1    
    33   16   17 1    
    34   17   18 1    
    35   17   81 1    
    36   17   82 1    
    37   18   19 1    
    38   18   22 1    
    39   18   83 1    
    40   19   20 am   BACKBONE|DICT|INTERRES
    41   19   21 2    
    42   20   84 1    
    43   20   85 1    
    44   22   23 am   BACKBONE|DICT|INTERRES
    45   22   86 1    
    46   23   24 2    
    47   23   25 1    
    48   25   26 1    
    49   25   27 1    
    50   25   87 1    
    51   26   88 1    
    52   26   89 1    
    53   26   90 1    
    54   27   28 am   BACKBONE|DICT|INTERRES
    55   27   91 1    
    56   28   29 2    
    57   28   30 1    
    58   30   31 1    
    59   30   32 1    
    60   30   92 1    
    61   31   93 1    
    62   31   94 1    
    63   31   95 1    
    64   32   33 am   BACKBONE|DICT|INTERRES
    65   32   96 1    
    66   33   34 2    
    67   33   35 1    
    68   35   36 1    
    69   35   37 1    
    70   35   97 1    
    71   36   98 1    
    72   36   99 1    
    73   36  100 1    
    74   37   38 am   BACKBONE|DICT|INTERRES
    75   37  101 1    
    76   38   39 2    
    77   38   40 1    
    78   40   41 1    
    79   40   42 1    
    80   40  102 1    
    81   41  103 1    
    82   41  104 1    
    83   41  105 1    
    84   42   43 am   BACKBONE|DICT|INTERRES
    85   42  106 1    
    86   43   44 2    
    87   43   45 1    
    88   45   46 1    
    89   45   49 1    
    90   45  107 1    
    91   46   47 1    
    92   46  108 1    
    93   46  109 1    
    94   47   48 1    
    95   48  110 1    
    96   48  111 1    
    97   49   50 am   BACKBONE|DICT|INTERRES
    98   49  112 1    
    99   50   51 2    
   100   50   52 1    
   101   52   53 1    
   102   52   54 1    
   103   52  113 1    
   104   53  114 1    
   105   53  115 1    
   106   53  116 1    
   107   54   55 am   BACKBONE|DICT|INTERRES
   108   54  117 1    
   109   55   56 2    
   110   55   57 1    
   111   57   58 1    
   112   57   59 1    
   113   57  118 1    
   114   58  119 1    
   115   58  120 1    
   116   58  121 1    
   117   59   60 am   BACKBONE|DICT|INTERRES
   118   59  122 1    
   119   60   61 2    
   120   60   62 1    
   121   62   63 1    
   122   62   64 1    
   123   62  123 1    
   124   63  124 1    
   125   63  125 1    
   126   63  126 1    
   127   64   65 am   BACKBONE|DICT|INTERRES
   128   64  127 1    
   129   65   66 2    
@<TRIPOS>SUBSTRUCTURE
     1 UNK         1 GROUP             0       ****    0 ROOT    
