@<TRIPOS>MOLECULE
3R135
127   129    1
SMALL
USER_CHARGES


@<TRIPOS>ATOM
      1 CA        -85.5415   26.5360  -72.8165 C.3       0 UNK        -0.1998 
      2 C         -84.9421   27.4012  -73.9147 C.2       0 UNK         0.4909 
      3 O         -85.6268   27.7192  -74.8874 O.2       0 UNK        -0.5240 
      4 N         -83.6668   27.7831  -73.7688 N.am      1 UNK        -0.4739 
      5 CA        -82.9169   28.5987  -74.7345 C.3       1 UNK         0.0864 
      6 C6        -81.7538   29.3600  -74.0470 C.3       11 UNK        -0.0881 
      7 S7        -80.5091   28.2813  -73.2557 S.3       11 UNK        -0.2682 
      8 C8        -79.5249   29.5142  -72.3508 C.3       11 UNK         0.0289 
      9 C9        -78.0699   29.0857  -72.2298 C.ar      11 UNK        -0.0687 
     10 C10       -77.6890   28.1289  -71.2836 C.ar      11 UNK        -0.0823 
     11 C11       -76.3485   27.7481  -71.1560 C.ar      11 UNK        -0.0830 
     12 C12       -75.3867   28.3452  -71.9778 C.ar      11 UNK        -0.1021 
     13 C13       -75.7571   29.2878  -72.9404 C.ar      11 UNK        -0.0753 
     14 C14       -77.0999   29.6569  -73.0590 C.ar      11 UNK        -0.0933 
     15 C15       -74.7160   29.8793  -73.8796 C.3       11 UNK         0.0166 
     16 S16       -74.2001   31.5435  -73.3550 S.3       11 UNK        -0.2615 
     17 C17       -73.0512   31.1599  -71.9876 C.3       11 UNK        -0.0865 
     18 CA        -71.6028   31.6617  -72.2605 C.3       10 UNK         0.0862 
     19 C         -70.6795   31.5339  -71.0087 C.2       10 UNK         0.5551 
     20 N         -69.3822   31.3002  -71.1664 N.am      10 UNK        -0.7319 
     21 O         -71.1352   31.6828  -69.8773 O.2       10 UNK        -0.5018 
     22 N         -71.0263   31.1349  -73.5141 N.am      10 UNK        -0.4509 
     23 C         -70.7513   29.8523  -73.7837 C.2       10 UNK         0.4899 
     24 O         -70.9383   28.9208  -72.9978 O.2       10 UNK        -0.4839 
     25 CA        -70.1018   29.5833  -75.1531 C.3       9 UNK         0.0222 
     26 CB        -68.5818   29.8067  -75.0786 C.3       9 UNK        -0.1966 
     27 N         -70.3585   28.2188  -75.6182 N.am      9 UNK        -0.4218 
     28 C         -71.5368   27.7839  -76.0817 C.2       9 UNK         0.5020 
     29 O         -72.5089   28.5208  -76.2654 O.2       9 UNK        -0.5274 
     30 CA        -71.6208   26.2796  -76.3991 C.3       8 UNK         0.0270 
     31 CB        -71.3404   25.4238  -75.1486 C.3       8 UNK        -0.1976 
     32 N         -72.9478   25.9361  -76.9103 N.am      8 UNK        -0.4313 
     33 C         -73.2725   25.8222  -78.2051 C.2       8 UNK         0.5041 
     34 O         -72.4570   25.9368  -79.1223 O.2       8 UNK        -0.5577 
     35 CA        -74.7420   25.5131  -78.5598 C.3       7 UNK         0.0284 
     36 CB        -74.8871   24.0655  -79.0584 C.3       7 UNK        -0.1958 
     37 N         -75.6689   25.7221  -77.4475 N.am      7 UNK        -0.4454 
     38 C         -76.0855   26.9167  -77.0080 C.2       7 UNK         0.5089 
     39 O         -75.8174   27.9844  -77.5581 O.2       7 UNK        -0.5125 
     40 CA        -76.9409   26.9160  -75.7289 C.3       6 UNK         0.0408 
     41 CB        -78.4345   26.9081  -76.0894 C.3       6 UNK        -0.1791 
     42 N         -76.6437   25.7929  -74.8303 N.am      6 UNK        -0.4762 
     43 C         -75.4710   25.6041  -74.2031 C.2       6 UNK         0.5007 
     44 O         -74.4971   26.3388  -74.3503 O.2       6 UNK        -0.5032 
     45 CA        -75.3410   24.3400  -73.3284 C.3       5 UNK         0.0783 
     46 C46       -75.9867   24.5232  -71.9301 C.3       11 UNK        -0.0857 
     47 S47       -74.8761   25.3857  -70.7686 S.3       11 UNK        -0.2512 
     48 C48       -75.9443   26.7128  -70.1112 C.3       11 UNK         0.0225 
     49 N         -75.8692   23.1608  -74.0191 N.am      5 UNK        -0.4615 
     50 C         -75.3319   22.6153  -75.1208 C.2       4 UNK         0.5053 
     51 O         -74.2695   22.9849  -75.6180 O.2       4 UNK        -0.5105 
     52 CA        -76.1393   21.4971  -75.8092 C.3       4 UNK         0.0263 
     53 CB        -75.6843   20.1173  -75.3083 C.3       4 UNK        -0.1981 
     54 N         -77.5894   21.6345  -75.6224 N.am      4 UNK        -0.4224 
     55 C         -78.3083   22.6772  -76.0600 C.2       3 UNK         0.4895 
     56 O         -77.8395   23.5897  -76.7476 O.2       3 UNK        -0.5091 
     57 CA        -79.7632   22.7574  -75.5801 C.3       3 UNK         0.0250 
     58 CB        -79.8024   22.9880  -74.0508 C.3       3 UNK        -0.1996 
     59 N         -80.4027   23.8658  -76.2854 N.am      3 UNK        -0.4254 
     60 C         -81.6792   24.2492  -76.1958 C.2       2 UNK         0.5004 
     61 O         -82.5377   23.6602  -75.5347 O.2       2 UNK        -0.5226 
     62 CA        -82.0621   25.5340  -76.9346 C.3       2 UNK         0.0269 
     63 CB        -83.1473   25.2837  -77.9969 C.3       2 UNK        -0.1926 
     64 N         -82.5470   26.4694  -75.9271 N.am      2 UNK        -0.4687 
     65 C         -82.4374   27.8021  -75.9721 C.2       1 UNK         0.5165 
     66 O         -81.9692   28.4093  -76.9367 O.2       1 UNK        -0.5079 
     67 H67       -86.4114   27.0289  -72.3832 H         1 UNK         0.0900 
     68 H68       -84.8283   26.3416  -72.0156 H         1 UNK         0.0900 
     69 H69       -85.8608   25.5781  -73.2262 H         1 UNK         0.0900 
     70 H70       -83.1437   27.4939  -72.9535 H         1 UNK         0.2959 
     71 H71       -83.6011   29.3554  -75.1258 H         1 UNK         0.1079 
     72 H72       -81.2465   30.0077  -74.7650 H         1 UNK         0.0837 
     73 H73       -82.1619   30.0278  -73.2864 H         1 UNK         0.0837 
     74 H74       -79.5862   30.4792  -72.8566 H         1 UNK         0.0685 
     75 H75       -79.9554   29.6607  -71.3591 H         1 UNK         0.0685 
     76 H76       -78.4416   27.6840  -70.6470 H         1 UNK         0.1434 
     77 H77       -74.3499   28.0501  -71.8911 H         1 UNK         0.1329 
     78 H78       -77.3878   30.3878  -73.8021 H         1 UNK         0.1335 
     79 H79       -75.1289   29.9379  -74.8879 H         1 UNK         0.0680 
     80 H80       -73.8450   29.2257  -73.9518 H         1 UNK         0.0680 
     81 H81       -73.0475   30.0893  -71.7817 H         1 UNK         0.1032 
     82 H82       -73.4570   31.6311  -71.0907 H         1 UNK         0.1032 
     83 H83       -71.6732   32.7381  -72.4214 H         1 UNK         0.0461 
     84 H84       -68.9933   31.1858  -72.0880 H         1 UNK         0.3453 
     85 H85       -68.7900   31.2305  -70.3539 H         1 UNK         0.3453 
     86 H86       -70.8176   31.8307  -74.2157 H         1 UNK         0.2984 
     87 H87       -70.5208   30.2805  -75.8821 H         1 UNK         0.0554 
     88 H88       -68.1074   29.6381  -76.0456 H         1 UNK         0.0847 
     89 H89       -68.1102   29.1425  -74.3528 H         1 UNK         0.0847 
     90 H90       -68.3484   30.8302  -74.7824 H         1 UNK         0.0847 
     91 H91       -69.6208   27.5466  -75.4673 H         1 UNK         0.3141 
     92 H92       -70.8630   26.0493  -77.1508 H         1 UNK         0.0743 
     93 H93       -70.2999   25.5086  -74.8342 H         1 UNK         0.0784 
     94 H94       -71.9584   25.7259  -74.3026 H         1 UNK         0.0784 
     95 H95       -71.5318   24.3673  -75.3394 H         1 UNK         0.0784 
     96 H96       -73.6876   25.9261  -76.2162 H         1 UNK         0.3213 
     97 H97       -75.0273   26.1835  -79.3734 H         1 UNK         0.0855 
     98 H98       -74.5820   23.3453  -78.2990 H         1 UNK         0.0814 
     99 H99       -74.2658   23.8923  -79.9381 H         1 UNK         0.0814 
    100 H100      -75.9166   23.8418  -79.3389 H         1 UNK         0.0814 
    101 H101      -76.0031   24.8972  -76.9641 H         1 UNK         0.3105 
    102 H102      -76.7263   27.8352  -75.1841 H         1 UNK         0.0547 
    103 H103      -78.7293   27.8594  -76.5341 H         1 UNK         0.0837 
    104 H104      -78.6692   26.1295  -76.8137 H         1 UNK         0.0837 
    105 H105      -79.0612   26.7513  -75.2132 H         1 UNK         0.0837 
    106 H106      -77.3734   25.1072  -74.7111 H         1 UNK         0.3020 
    107 H107      -74.2715   24.1602  -73.1907 H         1 UNK         0.1245 
    108 H108      -76.1961   23.5498  -71.4835 H         1 UNK         0.0781 
    109 H109      -76.9510   25.0315  -71.9943 H         1 UNK         0.0781 
    110 H110      -75.4106   27.2230  -69.3085 H         1 UNK         0.0836 
    111 H111      -76.8236   26.2576  -69.6526 H         1 UNK         0.0836 
    112 H112      -76.7304   22.7743  -73.6646 H         1 UNK         0.3022 
    113 H113      -75.9342   21.5581  -76.8803 H         1 UNK         0.0747 
    114 H114      -76.1877   19.3137  -75.8463 H         1 UNK         0.0793 
    115 H115      -74.6121   19.9827  -75.4588 H         1 UNK         0.0793 
    116 H116      -75.8828   19.9864  -74.2438 H         1 UNK         0.0793 
    117 H117      -78.0466   20.9195  -75.0741 H         1 UNK         0.3047 
    118 H118      -80.2733   21.8273  -75.8382 H         1 UNK         0.0822 
    119 H119      -80.8232   22.9993  -73.6696 H         1 UNK         0.0807 
    120 H120      -79.3379   23.9350  -73.7731 H         1 UNK         0.0807 
    121 H121      -79.2840   22.1959  -73.5097 H         1 UNK         0.0807 
    122 H122      -79.7562   24.3716  -76.8793 H         1 UNK         0.2946 
    123 H123      -81.1775   25.9487  -77.4235 H         1 UNK         0.1144 
    124 H124      -83.4024   26.2020  -78.5261 H         1 UNK         0.0793 
    125 H125      -84.0624   24.8885  -77.5539 H         1 UNK         0.0793 
    126 H126      -82.8052   24.5636  -78.7413 H         1 UNK         0.0793 
    127 H127      -82.9262   26.0438  -75.0914 H         1 UNK         0.2896 
@<TRIPOS>BOND
     1    1    2 1    
     2    1   67 1    
     3    1   68 1    
     4    1   69 1    
     5    2    3 2    
     6    2    4 am   BACKBONE|DICT|INTERRES
     7    4    5 1    
     8    4   70 1    
     9    5    6 1    
    10    5   65 1    
    11    5   71 1    
    12    6    7 1    
    13    6   72 1    
    14    6   73 1    
    15    7    8 1    
    16    8    9 1    
    17    8   74 1    
    18    8   75 1    
    19    9   10 ar   
    20    9   14 ar   
    21   10   11 ar   
    22   10   76 1    
    23   11   12 ar   
    24   11   48 1    
    25   12   13 ar   
    26   12   77 1    
    27   13   14 ar   
    28   13   15 1    
    29   14   78 1    
    30   15   16 1    
    31   15   79 1    
    32   15   80 1    
    33   16   17 1    
    34   17   18 1    
    35   17   81 1    
    36   17   82 1    
    37   18   19 1    
    38   18   22 1    
    39   18   83 1    
    40   19   20 am   BACKBONE|DICT|INTERRES
    41   19   21 2    
    42   20   84 1    
    43   20   85 1    
    44   22   23 am   BACKBONE|DICT|INTERRES
    45   22   86 1    
    46   23   24 2    
    47   23   25 1    
    48   25   26 1    
    49   25   27 1    
    50   25   87 1    
    51   26   88 1    
    52   26   89 1    
    53   26   90 1    
    54   27   28 am   BACKBONE|DICT|INTERRES
    55   27   91 1    
    56   28   29 2    
    57   28   30 1    
    58   30   31 1    
    59   30   32 1    
    60   30   92 1    
    61   31   93 1    
    62   31   94 1    
    63   31   95 1    
    64   32   33 am   BACKBONE|DICT|INTERRES
    65   32   96 1    
    66   33   34 2    
    67   33   35 1    
    68   35   36 1    
    69   35   37 1    
    70   35   97 1    
    71   36   98 1    
    72   36   99 1    
    73   36  100 1    
    74   37   38 am   BACKBONE|DICT|INTERRES
    75   37  101 1    
    76   38   39 2    
    77   38   40 1    
    78   40   41 1    
    79   40   42 1    
    80   40  102 1    
    81   41  103 1    
    82   41  104 1    
    83   41  105 1    
    84   42   43 am   BACKBONE|DICT|INTERRES
    85   42  106 1    
    86   43   44 2    
    87   43   45 1    
    88   45   46 1    
    89   45   49 1    
    90   45  107 1    
    91   46   47 1    
    92   46  108 1    
    93   46  109 1    
    94   47   48 1    
    95   48  110 1    
    96   48  111 1    
    97   49   50 am   BACKBONE|DICT|INTERRES
    98   49  112 1    
    99   50   51 2    
   100   50   52 1    
   101   52   53 1    
   102   52   54 1    
   103   52  113 1    
   104   53  114 1    
   105   53  115 1    
   106   53  116 1    
   107   54   55 am   BACKBONE|DICT|INTERRES
   108   54  117 1    
   109   55   56 2    
   110   55   57 1    
   111   57   58 1    
   112   57   59 1    
   113   57  118 1    
   114   58  119 1    
   115   58  120 1    
   116   58  121 1    
   117   59   60 am   BACKBONE|DICT|INTERRES
   118   59  122 1    
   119   60   61 2    
   120   60   62 1    
   121   62   63 1    
   122   62   64 1    
   123   62  123 1    
   124   63  124 1    
   125   63  125 1    
   126   63  126 1    
   127   64   65 am   BACKBONE|DICT|INTERRES
   128   64  127 1    
   129   65   66 2    
@<TRIPOS>SUBSTRUCTURE
     1 UNK         1 GROUP             0       ****    0 ROOT    
