@<TRIPOS>MOLECULE
3R135
127   129    1
SMALL
USER_CHARGES


@<TRIPOS>ATOM
      1 CA        -82.1067   26.1954  -73.0827 C.3       0 UNK        -0.1998 
      2 C         -83.2545   27.0678  -73.5826 C.2       0 UNK         0.4909 
      3 O         -84.3561   26.9437  -73.0526 O.2       0 UNK        -0.5240 
      4 N         -83.0928   27.9433  -74.5874 N.am      1 UNK        -0.4739 
      5 CA        -81.9033   28.3089  -75.3794 C.3       1 UNK         0.0864 
      6 C6        -80.7342   28.9298  -74.5632 C.3       11 UNK        -0.0881 
      7 S7        -81.2073   30.3434  -73.5160 S.3       11 UNK        -0.2682 
      8 C8        -80.9030   29.6982  -71.8367 C.3       11 UNK         0.0289 
      9 C9        -79.4389   29.3657  -71.5523 C.ar      11 UNK        -0.0687 
     10 C10       -79.0890   28.1010  -71.0659 C.ar      11 UNK        -0.0823 
     11 C11       -77.7670   27.8127  -70.7102 C.ar      11 UNK        -0.0830 
     12 C12       -76.7867   28.7968  -70.8550 C.ar      11 UNK        -0.1021 
     13 C13       -77.1149   30.0590  -71.3595 C.ar      11 UNK        -0.0753 
     14 C14       -78.4427   30.3366  -71.7048 C.ar      11 UNK        -0.0933 
     15 C15       -76.0485   31.1399  -71.4837 C.3       11 UNK         0.0166 
     16 S16       -74.9362   30.8547  -72.8973 S.3       11 UNK        -0.2615 
     17 C17       -73.7368   29.6660  -72.1965 C.3       11 UNK        -0.0865 
     18 CA        -72.3371   29.7571  -72.8620 C.3       10 UNK         0.0862 
     19 C         -71.2904   28.8494  -72.1500 C.2       10 UNK         0.5551 
     20 N         -70.4803   28.0711  -72.8598 N.am      10 UNK        -0.7319 
     21 O         -71.1971   28.8638  -70.9250 O.2       10 UNK        -0.5018 
     22 N         -72.4125   29.5142  -74.3099 N.am      10 UNK        -0.4509 
     23 C         -71.7658   30.2228  -75.2417 C.2       10 UNK         0.4899 
     24 O         -71.0612   31.2024  -74.9908 O.2       10 UNK        -0.4839 
     25 CA        -71.9406   29.7606  -76.7011 C.3       9 UNK         0.0222 
     26 CB        -70.8624   30.3336  -77.6460 C.3       9 UNK        -0.1966 
     27 N         -72.0400   28.3037  -76.8537 N.am      9 UNK        -0.4218 
     28 C         -71.1216   27.3814  -76.5233 C.2       9 UNK         0.5020 
     29 O         -70.0603   27.6600  -75.9621 O.2       9 UNK        -0.5274 
     30 CA        -71.4232   25.9024  -76.8553 C.3       8 UNK         0.0270 
     31 CB        -70.9808   24.9685  -75.7137 C.3       8 UNK        -0.1976 
     32 N         -72.8343   25.6453  -77.1536 N.am      8 UNK        -0.4313 
     33 C         -73.4435   25.8513  -78.3293 C.2       8 UNK         0.5041 
     34 O         -72.8556   26.2016  -79.3524 O.2       8 UNK        -0.5577 
     35 CA        -74.9792   25.7168  -78.3446 C.3       7 UNK         0.0284 
     36 CB        -75.3973   24.2688  -78.6396 C.3       7 UNK        -0.1958 
     37 N         -75.5969   26.1768  -77.0933 N.am      7 UNK        -0.4454 
     38 C         -75.5240   27.4391  -76.6426 C.2       7 UNK         0.5089 
     39 O         -75.0090   28.3586  -77.2783 O.2       7 UNK        -0.5125 
     40 CA        -76.0435   27.7179  -75.2252 C.3       6 UNK         0.0408 
     41 CB        -77.5239   28.0942  -75.2368 C.3       6 UNK        -0.1791 
     42 N         -75.8414   26.5909  -74.3198 N.am      6 UNK        -0.4762 
     43 C         -74.6540   26.2370  -73.8181 C.2       6 UNK         0.5007 
     44 O         -73.6034   26.8260  -74.0730 O.2       6 UNK        -0.5032 
     45 CA        -74.6374   24.9888  -72.9165 C.3       5 UNK         0.0783 
     46 C46       -75.2074   25.2882  -71.5022 C.3       11 UNK        -0.0857 
     47 S47       -77.0357   25.2297  -71.4055 S.3       11 UNK        -0.2512 
     48 C48       -77.4136   26.4562  -70.1178 C.3       11 UNK         0.0225 
     49 N         -75.2988   23.8430  -73.5506 N.am      5 UNK        -0.4615 
     50 C         -74.9588   23.2938  -74.7229 C.2       4 UNK         0.5053 
     51 O         -73.9821   23.6423  -75.3829 O.2       4 UNK        -0.5105 
     52 CA        -75.8794   22.1906  -75.2723 C.3       4 UNK         0.0263 
     53 CB        -75.3899   20.8102  -74.8069 C.3       4 UNK        -0.1981 
     54 N         -77.2968   22.3462  -74.9262 N.am      4 UNK        -0.4224 
     55 C         -78.0705   23.4016  -75.2212 C.2       3 UNK         0.4895 
     56 O         -77.6613   24.4318  -75.7636 O.2       3 UNK        -0.5091 
     57 CA        -79.5381   23.2823  -74.7735 C.3       3 UNK         0.0250 
     58 CB        -79.6701   23.5968  -73.2747 C.3       3 UNK        -0.1996 
     59 N         -80.4524   24.1498  -75.5191 N.am      3 UNK        -0.4254 
     60 C         -80.7925   24.0037  -76.8066 C.2       2 UNK         0.5004 
     61 O         -80.3507   23.1102  -77.5307 O.2       2 UNK        -0.5226 
     62 CA        -81.8413   24.9814  -77.3793 C.3       2 UNK         0.0269 
     63 CB        -83.1434   24.2337  -77.7152 C.3       2 UNK        -0.1926 
     64 N         -82.1675   26.1087  -76.4938 N.am      2 UNK        -0.4687 
     65 C         -81.4119   27.2071  -76.3509 C.2       1 UNK         0.5165 
     66 O         -80.3604   27.3727  -76.9677 O.2       1 UNK        -0.5079 
     67 H67       -81.8570   26.4628  -72.0573 H         1 UNK         0.0900 
     68 H68       -81.2036   26.2648  -73.6784 H         1 UNK         0.0900 
     69 H69       -82.4215   25.1523  -73.0809 H         1 UNK         0.0900 
     70 H70       -83.9150   28.4680  -74.8534 H         1 UNK         0.2959 
     71 H71       -82.2588   29.0985  -76.0438 H         1 UNK         0.1079 
     72 H72       -80.2186   28.1836  -73.9618 H         1 UNK         0.0837 
     73 H73       -79.9852   29.3214  -75.2518 H         1 UNK         0.0837 
     74 H74       -81.5406   28.8295  -71.6735 H         1 UNK         0.0685 
     75 H75       -81.2298   30.4495  -71.1168 H         1 UNK         0.0685 
     76 H76       -79.8502   27.3454  -70.9309 H         1 UNK         0.1434 
     77 H77       -75.7704   28.5836  -70.5579 H         1 UNK         0.1329 
     78 H78       -78.7092   31.3179  -72.0729 H         1 UNK         0.1335 
     79 H79       -76.5192   32.1155  -71.6146 H         1 UNK         0.0680 
     80 H80       -75.4757   31.2083  -70.5580 H         1 UNK         0.0680 
     81 H81       -73.6492   29.8541  -71.1251 H         1 UNK         0.1032 
     82 H82       -74.1451   28.6615  -72.2945 H         1 UNK         0.1032 
     83 H83       -71.9819   30.7753  -72.6940 H         1 UNK         0.0461 
     84 H84       -70.5219   28.0623  -73.8709 H         1 UNK         0.3453 
     85 H85       -69.8054   27.4974  -72.3806 H         1 UNK         0.3453 
     86 H86       -72.9173   28.6757  -74.5769 H         1 UNK         0.2984 
     87 H87       -72.9022   30.1609  -77.0249 H         1 UNK         0.0554 
     88 H88       -71.0247   30.0121  -78.6748 H         1 UNK         0.0847 
     89 H89       -69.8597   30.0225  -77.3512 H         1 UNK         0.0847 
     90 H90       -70.8778   31.4241  -77.6437 H         1 UNK         0.0847 
     91 H91       -72.9124   27.9820  -77.2573 H         1 UNK         0.3141 
     92 H92       -70.8321   25.6525  -77.7385 H         1 UNK         0.0743 
     93 H93       -69.9114   25.0587  -75.5191 H         1 UNK         0.0784 
     94 H94       -71.5028   25.1967  -74.7837 H         1 UNK         0.0784 
     95 H95       -71.1756   23.9241  -75.9579 H         1 UNK         0.0784 
     96 H96       -73.3899   25.2840  -76.3833 H         1 UNK         0.3213 
     97 H97       -75.3618   26.3507  -79.1475 H         1 UNK         0.0855 
     98 H98       -75.0994   23.9810  -79.6485 H         1 UNK         0.0814 
     99 H99       -76.4775   24.1379  -78.5682 H         1 UNK         0.0814 
    100 H100      -74.9231   23.5674  -77.9551 H         1 UNK         0.0814 
    101 H101      -76.0981   25.4923  -76.5343 H         1 UNK         0.3105 
    102 H102      -75.4872   28.5734  -74.8369 H         1 UNK         0.0547 
    103 H103      -78.1495   27.2485  -75.5230 H         1 UNK         0.0837 
    104 H104      -77.8390   28.4363  -74.2507 H         1 UNK         0.0837 
    105 H105      -77.7155   28.9036  -75.9423 H         1 UNK         0.0837 
    106 H106      -76.6497   26.0261  -74.0966 H         1 UNK         0.3020 
    107 H107      -73.5851   24.7197  -72.7983 H         1 UNK         0.1245 
    108 H108      -74.8438   26.2484  -71.1310 H         1 UNK         0.0781 
    109 H109      -74.8274   24.5439  -70.8008 H         1 UNK         0.0781 
    110 H110      -76.5782   26.5425  -69.4213 H         1 UNK         0.0836 
    111 H111      -78.2539   26.0880  -69.5273 H         1 UNK         0.0836 
    112 H112      -76.1265   23.5050  -73.0818 H         1 UNK         0.3022 
    113 H113      -75.8138   22.2193  -76.3601 H         1 UNK         0.0747 
    114 H114      -75.9610   20.0071  -75.2730 H         1 UNK         0.0793 
    115 H115      -74.3433   20.6569  -75.0749 H         1 UNK         0.0793 
    116 H116      -75.4688   20.6963  -73.7249 H         1 UNK         0.0793 
    117 H117      -77.7244   21.5592  -74.4592 H         1 UNK         0.3047 
    118 H118      -79.8563   22.2507  -74.9397 H         1 UNK         0.0822 
    119 H119      -78.9996   22.9786  -72.6763 H         1 UNK         0.0807 
    120 H120      -80.6809   23.4031  -72.9161 H         1 UNK         0.0807 
    121 H121      -79.4287   24.6380  -73.0599 H         1 UNK         0.0807 
    122 H122      -80.8483   24.9283  -75.0200 H         1 UNK         0.2946 
    123 H123      -81.4269   25.3762  -78.3101 H         1 UNK         0.1144 
    124 H124      -82.9568   23.4118  -78.4081 H         1 UNK         0.0793 
    125 H125      -83.8693   24.8939  -78.1903 H         1 UNK         0.0793 
    126 H126      -83.6068   23.8089  -76.8238 H         1 UNK         0.0793 
    127 H127      -83.0394   26.0554  -75.9858 H         1 UNK         0.2896 
@<TRIPOS>BOND
     1    1    2 1    
     2    1   67 1    
     3    1   68 1    
     4    1   69 1    
     5    2    3 2    
     6    2    4 am   BACKBONE|DICT|INTERRES
     7    4    5 1    
     8    4   70 1    
     9    5    6 1    
    10    5   65 1    
    11    5   71 1    
    12    6    7 1    
    13    6   72 1    
    14    6   73 1    
    15    7    8 1    
    16    8    9 1    
    17    8   74 1    
    18    8   75 1    
    19    9   10 ar   
    20    9   14 ar   
    21   10   11 ar   
    22   10   76 1    
    23   11   12 ar   
    24   11   48 1    
    25   12   13 ar   
    26   12   77 1    
    27   13   14 ar   
    28   13   15 1    
    29   14   78 1    
    30   15   16 1    
    31   15   79 1    
    32   15   80 1    
    33   16   17 1    
    34   17   18 1    
    35   17   81 1    
    36   17   82 1    
    37   18   19 1    
    38   18   22 1    
    39   18   83 1    
    40   19   20 am   BACKBONE|DICT|INTERRES
    41   19   21 2    
    42   20   84 1    
    43   20   85 1    
    44   22   23 am   BACKBONE|DICT|INTERRES
    45   22   86 1    
    46   23   24 2    
    47   23   25 1    
    48   25   26 1    
    49   25   27 1    
    50   25   87 1    
    51   26   88 1    
    52   26   89 1    
    53   26   90 1    
    54   27   28 am   BACKBONE|DICT|INTERRES
    55   27   91 1    
    56   28   29 2    
    57   28   30 1    
    58   30   31 1    
    59   30   32 1    
    60   30   92 1    
    61   31   93 1    
    62   31   94 1    
    63   31   95 1    
    64   32   33 am   BACKBONE|DICT|INTERRES
    65   32   96 1    
    66   33   34 2    
    67   33   35 1    
    68   35   36 1    
    69   35   37 1    
    70   35   97 1    
    71   36   98 1    
    72   36   99 1    
    73   36  100 1    
    74   37   38 am   BACKBONE|DICT|INTERRES
    75   37  101 1    
    76   38   39 2    
    77   38   40 1    
    78   40   41 1    
    79   40   42 1    
    80   40  102 1    
    81   41  103 1    
    82   41  104 1    
    83   41  105 1    
    84   42   43 am   BACKBONE|DICT|INTERRES
    85   42  106 1    
    86   43   44 2    
    87   43   45 1    
    88   45   46 1    
    89   45   49 1    
    90   45  107 1    
    91   46   47 1    
    92   46  108 1    
    93   46  109 1    
    94   47   48 1    
    95   48  110 1    
    96   48  111 1    
    97   49   50 am   BACKBONE|DICT|INTERRES
    98   49  112 1    
    99   50   51 2    
   100   50   52 1    
   101   52   53 1    
   102   52   54 1    
   103   52  113 1    
   104   53  114 1    
   105   53  115 1    
   106   53  116 1    
   107   54   55 am   BACKBONE|DICT|INTERRES
   108   54  117 1    
   109   55   56 2    
   110   55   57 1    
   111   57   58 1    
   112   57   59 1    
   113   57  118 1    
   114   58  119 1    
   115   58  120 1    
   116   58  121 1    
   117   59   60 am   BACKBONE|DICT|INTERRES
   118   59  122 1    
   119   60   61 2    
   120   60   62 1    
   121   62   63 1    
   122   62   64 1    
   123   62  123 1    
   124   63  124 1    
   125   63  125 1    
   126   63  126 1    
   127   64   65 am   BACKBONE|DICT|INTERRES
   128   64  127 1    
   129   65   66 2    
@<TRIPOS>SUBSTRUCTURE
     1 UNK         1 GROUP             0       ****    0 ROOT    
