@<TRIPOS>MOLECULE
3R135
127   129    1
SMALL
USER_CHARGES


@<TRIPOS>ATOM
      1 CA        -77.9682   24.9892  -68.8675 C.3       0 UNK        -0.1998 
      2 C         -77.6811   26.1229  -69.8481 C.2       0 UNK         0.4909 
      3 O         -76.6319   26.7543  -69.7481 O.2       0 UNK        -0.5240 
      4 N         -78.5702   26.4364  -70.8015 N.am      1 UNK        -0.4739 
      5 CA        -79.8500   25.7787  -71.0972 C.3       1 UNK         0.0864 
      6 C6        -80.6754   26.6106  -72.1145 C.3       11 UNK        -0.0881 
      7 S7        -81.6040   27.9880  -71.3580 S.3       11 UNK        -0.2682 
      8 C8        -80.3243   29.2016  -70.8874 C.3       11 UNK         0.0289 
      9 C9        -79.3943   29.6101  -72.0250 C.ar      11 UNK        -0.0687 
     10 C10       -79.9040   30.0705  -73.2439 C.ar      11 UNK        -0.0823 
     11 C11       -79.0432   30.4889  -74.2646 C.ar      11 UNK        -0.0830 
     12 C12       -77.6599   30.4402  -74.0605 C.ar      11 UNK        -0.1021 
     13 C13       -77.1399   29.9876  -72.8441 C.ar      11 UNK        -0.0753 
     14 C14       -78.0103   29.5766  -71.8323 C.ar      11 UNK        -0.0933 
     15 C15       -75.6388   29.9436  -72.6119 C.3       11 UNK         0.0166 
     16 S16       -75.0174   31.5340  -71.9938 S.3       11 UNK        -0.2615 
     17 C17       -73.4099   31.0427  -71.2804 C.3       11 UNK        -0.0865 
     18 CA        -72.2668   31.0420  -72.3265 C.3       10 UNK         0.0862 
     19 C         -70.8772   31.0431  -71.6338 C.2       10 UNK         0.5551 
     20 N         -70.3190   32.2168  -71.3708 N.am      10 UNK        -0.7319 
     21 O         -70.3227   29.9982  -71.2964 O.2       10 UNK        -0.5018 
     22 N         -72.3976   29.9114  -73.2543 N.am      10 UNK        -0.4509 
     23 C         -71.8519   29.8551  -74.4712 C.2       10 UNK         0.4899 
     24 O         -71.2542   30.7986  -74.9908 O.2       10 UNK        -0.4839 
     25 CA        -71.9876   28.5431  -75.2660 C.3       9 UNK         0.0222 
     26 CB        -70.6886   27.7187  -75.1838 C.3       9 UNK        -0.1966 
     27 N         -73.1574   27.7048  -74.9625 N.am      9 UNK        -0.4218 
     28 C         -73.4525   27.0056  -73.8559 C.2       9 UNK         0.5020 
     29 O         -72.8422   27.1108  -72.7922 O.2       9 UNK        -0.5274 
     30 CA        -74.6183   26.0016  -73.9626 C.3       8 UNK         0.0270 
     31 CB        -75.9622   26.6661  -73.6274 C.3       8 UNK        -0.1976 
     32 N         -74.7057   25.3786  -75.2863 N.am      8 UNK        -0.4313 
     33 C         -73.7954   24.5376  -75.8006 C.2       8 UNK         0.5041 
     34 O         -72.8148   24.1209  -75.1834 O.2       8 UNK        -0.5577 
     35 CA        -74.0030   24.1086  -77.2617 C.3       7 UNK         0.0284 
     36 CB        -74.9586   22.9065  -77.3552 C.3       7 UNK        -0.1958 
     37 N         -74.5063   25.2164  -78.0779 N.am      7 UNK        -0.4454 
     38 C         -73.7429   26.2161  -78.5443 C.2       7 UNK         0.5089 
     39 O         -72.5205   26.2651  -78.4107 O.2       7 UNK        -0.5125 
     40 CA        -74.4629   27.3673  -79.2718 C.3       6 UNK         0.0408 
     41 CB        -74.5267   27.0893  -80.7818 C.3       6 UNK        -0.1791 
     42 N         -75.8158   27.6174  -78.7666 N.am      6 UNK        -0.4762 
     43 C         -76.0999   28.0981  -77.5461 C.2       6 UNK         0.5007 
     44 O         -75.2422   28.4306  -76.7302 O.2       6 UNK        -0.5032 
     45 CA        -77.5887   28.1556  -77.1454 C.3       5 UNK         0.0783 
     46 C46       -78.1932   29.5334  -77.4988 C.3       11 UNK        -0.0857 
     47 S47       -79.8723   29.7398  -76.8153 S.3       11 UNK        -0.2512 
     48 C48       -79.6164   31.0388  -75.5640 C.3       11 UNK         0.0225 
     49 N         -78.3570   27.0436  -77.7237 N.am      5 UNK        -0.4615 
     50 C         -78.1323   25.7532  -77.4531 C.2       4 UNK         0.5053 
     51 O         -77.2629   25.3610  -76.6687 O.2       4 UNK        -0.5105 
     52 CA        -78.9530   24.7309  -78.2424 C.3       4 UNK         0.0263 
     53 CB        -78.3152   24.4618  -79.6175 C.3       4 UNK        -0.1981 
     54 N         -78.9926   23.5009  -77.4648 N.am      4 UNK        -0.4224 
     55 C         -79.9531   22.5718  -77.5043 C.2       3 UNK         0.4895 
     56 O         -80.8854   22.5845  -78.3094 O.2       3 UNK        -0.5091 
     57 CA        -79.8760   21.4369  -76.4615 C.3       3 UNK         0.0250 
     58 CB        -79.3105   20.1600  -77.1055 C.3       3 UNK        -0.1996 
     59 N         -79.0914   21.7550  -75.2589 N.am      3 UNK        -0.4254 
     60 C         -79.3582   22.7499  -74.3993 C.2       2 UNK         0.5004 
     61 O         -80.3142   23.5180  -74.5330 O.2       2 UNK        -0.5226 
     62 CA        -78.3734   22.9221  -73.2216 C.3       2 UNK         0.0269 
     63 CB        -76.9088   22.9406  -73.7013 C.3       2 UNK        -0.1926 
     64 N         -78.6316   24.1561  -72.4746 N.am      2 UNK        -0.4687 
     65 C         -79.6509   24.3432  -71.6254 C.2       1 UNK         0.5165 
     66 O         -80.4053   23.4456  -71.2482 O.2       1 UNK        -0.5079 
     67 H67       -77.7878   24.0223  -69.3361 H         1 UNK         0.0900 
     68 H68       -78.9932   25.0190  -68.5012 H         1 UNK         0.0900 
     69 H69       -77.3120   25.0655  -68.0008 H         1 UNK         0.0900 
     70 H70       -78.3500   27.2119  -71.4091 H         1 UNK         0.2959 
     71 H71       -80.4257   25.7003  -70.1730 H         1 UNK         0.1079 
     72 H72       -80.0481   26.9863  -72.9252 H         1 UNK         0.0837 
     73 H73       -81.4293   25.9876  -72.6019 H         1 UNK         0.0837 
     74 H74       -80.8230   30.0971  -70.5146 H         1 UNK         0.0685 
     75 H75       -79.7595   28.8032  -70.0437 H         1 UNK         0.0685 
     76 H76       -80.9746   30.1149  -73.3920 H         1 UNK         0.1434 
     77 H77       -76.9850   30.7712  -74.8377 H         1 UNK         0.1329 
     78 H78       -77.6035   29.2478  -70.8851 H         1 UNK         0.1335 
     79 H79       -75.3953   29.1551  -71.8985 H         1 UNK         0.0680 
     80 H80       -75.1285   29.6952  -73.5432 H         1 UNK         0.0680 
     81 H81       -73.4930   30.0725  -70.7867 H         1 UNK         0.1032 
     82 H82       -73.1954   31.7594  -70.4850 H         1 UNK         0.1032 
     83 H83       -72.3443   31.9643  -72.9069 H         1 UNK         0.0461 
     84 H84       -70.7695   33.0799  -71.6350 H         1 UNK         0.3453 
     85 H85       -69.4240   32.2413  -70.9071 H         1 UNK         0.3453 
     86 H86       -72.7540   29.0426  -72.8696 H         1 UNK         0.2984 
     87 H87       -72.1193   28.8359  -76.3090 H         1 UNK         0.0554 
     88 H88       -70.7420   26.8338  -75.8189 H         1 UNK         0.0847 
     89 H89       -70.4800   27.3897  -74.1652 H         1 UNK         0.0847 
     90 H90       -69.8316   28.3056  -75.5167 H         1 UNK         0.0847 
     91 H91       -73.8364   27.6613  -75.7187 H         1 UNK         0.3141 
     92 H92       -74.4407   25.2064  -73.2355 H         1 UNK         0.0743 
     93 H93       -76.1392   27.5479  -74.2417 H         1 UNK         0.0784 
     94 H94       -76.7984   25.9870  -73.7835 H         1 UNK         0.0784 
     95 H95       -75.9871   26.9760  -72.5828 H         1 UNK         0.0784 
     96 H96       -75.5260   25.5957  -75.8448 H         1 UNK         0.3213 
     97 H97       -73.0336   23.7971  -77.6578 H         1 UNK         0.0855 
     98 H98       -75.9445   23.1299  -76.9501 H         1 UNK         0.0814 
     99 H99       -74.5656   22.0572  -76.7948 H         1 UNK         0.0814 
    100 H100      -75.0864   22.5807  -78.3876 H         1 UNK         0.0814 
    101 H101      -75.5072   25.2784  -78.1944 H         1 UNK         0.3105 
    102 H102      -73.8737   28.2739  -79.1172 H         1 UNK         0.0547 
    103 H103      -73.5284   26.9241  -81.1896 H         1 UNK         0.0837 
    104 H104      -75.1206   26.2025  -81.0067 H         1 UNK         0.0837 
    105 H105      -74.9593   27.9308  -81.3230 H         1 UNK         0.0837 
    106 H106      -76.5836   27.3779  -79.3771 H         1 UNK         0.3020 
    107 H107      -77.6240   28.0425  -76.0596 H         1 UNK         0.1245 
    108 H108      -77.5549   30.3409  -77.1361 H         1 UNK         0.0781 
    109 H109      -78.2476   29.6620  -78.5815 H         1 UNK         0.0781 
    110 H110      -78.9746   31.8253  -75.9641 H         1 UNK         0.0836 
    111 H111      -80.5766   31.5170  -75.3645 H         1 UNK         0.0836 
    112 H112      -79.0949   27.2965  -78.3653 H         1 UNK         0.3022 
    113 H113      -79.9671   25.1165  -78.3676 H         1 UNK         0.0747 
    114 H114      -78.8978   23.7378  -80.1875 H         1 UNK         0.0793 
    115 H115      -78.2631   25.3728  -80.2148 H         1 UNK         0.0793 
    116 H116      -77.3014   24.0704  -79.5233 H         1 UNK         0.0793 
    117 H117      -78.2886   23.4519  -76.7400 H         1 UNK         0.3047 
    118 H118      -80.8990   21.2330  -76.1380 H         1 UNK         0.0822 
    119 H119      -79.3439   19.3170  -76.4150 H         1 UNK         0.0807 
    120 H120      -78.2762   20.2936  -77.4257 H         1 UNK         0.0807 
    121 H121      -79.8895   19.8766  -77.9858 H         1 UNK         0.0807 
    122 H122      -78.2916   21.1647  -75.0804 H         1 UNK         0.2946 
    123 H123      -78.5118   22.0735  -72.5475 H         1 UNK         0.1144 
    124 H124      -76.5993   21.9682  -74.0854 H         1 UNK         0.0793 
    125 H125      -76.7587   23.6676  -74.4988 H         1 UNK         0.0793 
    126 H126      -76.2249   23.1889  -72.8893 H         1 UNK         0.0793 
    127 H127      -78.0742   24.9583  -72.7237 H         1 UNK         0.2896 
@<TRIPOS>BOND
     1    1    2 1    
     2    1   67 1    
     3    1   68 1    
     4    1   69 1    
     5    2    3 2    
     6    2    4 am   BACKBONE|DICT|INTERRES
     7    4    5 1    
     8    4   70 1    
     9    5    6 1    
    10    5   65 1    
    11    5   71 1    
    12    6    7 1    
    13    6   72 1    
    14    6   73 1    
    15    7    8 1    
    16    8    9 1    
    17    8   74 1    
    18    8   75 1    
    19    9   10 ar   
    20    9   14 ar   
    21   10   11 ar   
    22   10   76 1    
    23   11   12 ar   
    24   11   48 1    
    25   12   13 ar   
    26   12   77 1    
    27   13   14 ar   
    28   13   15 1    
    29   14   78 1    
    30   15   16 1    
    31   15   79 1    
    32   15   80 1    
    33   16   17 1    
    34   17   18 1    
    35   17   81 1    
    36   17   82 1    
    37   18   19 1    
    38   18   22 1    
    39   18   83 1    
    40   19   20 am   BACKBONE|DICT|INTERRES
    41   19   21 2    
    42   20   84 1    
    43   20   85 1    
    44   22   23 am   BACKBONE|DICT|INTERRES
    45   22   86 1    
    46   23   24 2    
    47   23   25 1    
    48   25   26 1    
    49   25   27 1    
    50   25   87 1    
    51   26   88 1    
    52   26   89 1    
    53   26   90 1    
    54   27   28 am   BACKBONE|DICT|INTERRES
    55   27   91 1    
    56   28   29 2    
    57   28   30 1    
    58   30   31 1    
    59   30   32 1    
    60   30   92 1    
    61   31   93 1    
    62   31   94 1    
    63   31   95 1    
    64   32   33 am   BACKBONE|DICT|INTERRES
    65   32   96 1    
    66   33   34 2    
    67   33   35 1    
    68   35   36 1    
    69   35   37 1    
    70   35   97 1    
    71   36   98 1    
    72   36   99 1    
    73   36  100 1    
    74   37   38 am   BACKBONE|DICT|INTERRES
    75   37  101 1    
    76   38   39 2    
    77   38   40 1    
    78   40   41 1    
    79   40   42 1    
    80   40  102 1    
    81   41  103 1    
    82   41  104 1    
    83   41  105 1    
    84   42   43 am   BACKBONE|DICT|INTERRES
    85   42  106 1    
    86   43   44 2    
    87   43   45 1    
    88   45   46 1    
    89   45   49 1    
    90   45  107 1    
    91   46   47 1    
    92   46  108 1    
    93   46  109 1    
    94   47   48 1    
    95   48  110 1    
    96   48  111 1    
    97   49   50 am   BACKBONE|DICT|INTERRES
    98   49  112 1    
    99   50   51 2    
   100   50   52 1    
   101   52   53 1    
   102   52   54 1    
   103   52  113 1    
   104   53  114 1    
   105   53  115 1    
   106   53  116 1    
   107   54   55 am   BACKBONE|DICT|INTERRES
   108   54  117 1    
   109   55   56 2    
   110   55   57 1    
   111   57   58 1    
   112   57   59 1    
   113   57  118 1    
   114   58  119 1    
   115   58  120 1    
   116   58  121 1    
   117   59   60 am   BACKBONE|DICT|INTERRES
   118   59  122 1    
   119   60   61 2    
   120   60   62 1    
   121   62   63 1    
   122   62   64 1    
   123   62  123 1    
   124   63  124 1    
   125   63  125 1    
   126   63  126 1    
   127   64   65 am   BACKBONE|DICT|INTERRES
   128   64  127 1    
   129   65   66 2    
@<TRIPOS>SUBSTRUCTURE
     1 UNK         1 GROUP             0       ****    0 ROOT    
