@<TRIPOS>MOLECULE
3R135
127   129    1
SMALL
USER_CHARGES


@<TRIPOS>ATOM
      1 CA        -83.2562   23.2237  -73.9689 C.3       0 UNK        -0.1998 
      2 C         -82.6205   24.4478  -74.6089 C.2       0 UNK         0.4909 
      3 O         -82.6430   24.5749  -75.8338 O.2       0 UNK        -0.5240 
      4 N         -82.0494   25.3464  -73.7924 N.am      1 UNK        -0.4739 
      5 CA        -81.3881   26.5853  -74.2199 C.3       1 UNK         0.0864 
      6 C6        -80.9225   27.4289  -73.0082 C.3       11 UNK        -0.0881 
      7 S7        -80.6487   29.1746  -73.4580 S.3       11 UNK        -0.2682 
      8 C8        -80.3532   29.9196  -71.8250 C.3       11 UNK         0.0289 
      9 C9        -78.8966   29.8010  -71.3993 C.ar      11 UNK        -0.0687 
     10 C10       -78.4551   28.6911  -70.6734 C.ar      11 UNK        -0.0823 
     11 C11       -77.1230   28.5993  -70.2561 C.ar      11 UNK        -0.0830 
     12 C12       -76.2347   29.6379  -70.5546 C.ar      11 UNK        -0.1021 
     13 C13       -76.6668   30.7583  -71.2718 C.ar      11 UNK        -0.0753 
     14 C14       -77.9960   30.8269  -71.7005 C.ar      11 UNK        -0.0933 
     15 C15       -75.7213   31.9205  -71.5450 C.3       11 UNK         0.0166 
     16 S16       -74.4764   31.5207  -72.8104 S.3       11 UNK        -0.2615 
     17 C17       -72.9914   31.2331  -71.7780 C.3       11 UNK        -0.0865 
     18 CA        -71.9795   30.2369  -72.4015 C.3       10 UNK         0.0862 
     19 C         -72.4967   28.7693  -72.3285 C.2       10 UNK         0.5551 
     20 N         -72.7621   28.1038  -73.4446 N.am      10 UNK        -0.7319 
     21 O         -72.6466   28.2315  -71.2347 O.2       10 UNK        -0.5018 
     22 N         -71.5511   30.6842  -73.7352 N.am      10 UNK        -0.4509 
     23 C         -70.4344   30.2969  -74.3595 C.2       10 UNK         0.4899 
     24 O         -69.5576   29.5973  -73.8488 O.2       10 UNK        -0.4839 
     25 CA        -70.2940   30.7464  -75.8262 C.3       9 UNK         0.0222 
     26 CB        -68.9421   31.4392  -76.0694 C.3       9 UNK        -0.1966 
     27 N         -70.4413   29.6216  -76.7562 N.am      9 UNK        -0.4218 
     28 C         -71.5174   28.8271  -76.8347 C.2       9 UNK         0.5020 
     29 O         -72.5389   28.9925  -76.1585 O.2       9 UNK        -0.5274 
     30 CA        -71.4460   27.6454  -77.8149 C.3       8 UNK         0.0270 
     31 CB        -70.2269   26.7394  -77.5557 C.3       8 UNK        -0.1976 
     32 N         -72.6681   26.8745  -77.6349 N.am      8 UNK        -0.4313 
     33 C         -73.3589   26.1997  -78.5560 C.2       8 UNK         0.5041 
     34 O         -72.9870   26.0469  -79.7203 O.2       8 UNK        -0.5577 
     35 CA        -74.6960   25.5889  -78.0927 C.3       7 UNK         0.0284 
     36 CB        -74.5604   24.0668  -77.9208 C.3       7 UNK        -0.1958 
     37 N         -75.1737   26.1644  -76.8305 N.am      7 UNK        -0.4454 
     38 C         -75.7595   27.3605  -76.6921 C.2       7 UNK         0.5089 
     39 O         -76.0286   28.0945  -77.6436 O.2       7 UNK        -0.5125 
     40 CA        -76.1088   27.8010  -75.2539 C.3       6 UNK         0.0408 
     41 CB        -77.1738   28.9119  -75.2060 C.3       6 UNK        -0.1791 
     42 N         -76.5369   26.6946  -74.3902 N.am      6 UNK        -0.4762 
     43 C         -75.7173   25.8357  -73.7691 C.2       6 UNK         0.5007 
     44 O         -74.5034   25.7920  -73.9742 O.2       6 UNK        -0.5032 
     45 CA        -76.3575   24.8345  -72.7974 C.3       5 UNK         0.0783 
     46 C46       -76.9492   25.5174  -71.5386 C.3       11 UNK        -0.0857 
     47 S47       -75.6742   26.2282  -70.4461 S.3       11 UNK        -0.2512 
     48 C48       -76.6513   27.3970  -69.4487 C.3       11 UNK         0.0225 
     49 N         -77.3717   24.0376  -73.4888 N.am      5 UNK        -0.4615 
     50 C         -77.5225   22.7191  -73.3240 C.2       4 UNK         0.5053 
     51 O         -76.7399   22.0196  -72.6798 O.2       4 UNK        -0.5105 
     52 CA        -78.7667   22.0565  -73.9298 C.3       4 UNK         0.0263 
     53 CB        -79.9380   22.1463  -72.9377 C.3       4 UNK        -0.1981 
     54 N         -79.1814   22.6291  -75.2163 N.am      4 UNK        -0.4224 
     55 C         -79.3343   21.9086  -76.3392 C.2       3 UNK         0.4895 
     56 O         -79.0214   20.7207  -76.4330 O.2       3 UNK        -0.5091 
     57 CA        -79.9781   22.5842  -77.5649 C.3       3 UNK         0.0250 
     58 CB        -81.3761   21.9972  -77.8255 C.3       3 UNK        -0.1996 
     59 N         -80.0953   24.0365  -77.4355 N.am      3 UNK        -0.4254 
     60 C         -79.1328   24.9009  -77.7851 C.2       2 UNK         0.5004 
     61 O         -78.0638   24.5624  -78.2907 O.2       2 UNK        -0.5226 
     62 CA        -79.3909   26.3951  -77.5179 C.3       2 UNK         0.0269 
     63 CB        -79.8488   27.1020  -78.8029 C.3       2 UNK        -0.1926 
     64 N         -80.3558   26.6658  -76.4474 N.am      2 UNK        -0.4687 
     65 C         -80.2176   26.2793  -75.1726 C.2       1 UNK         0.5165 
     66 O         -79.2411   25.6561  -74.7478 O.2       1 UNK        -0.5079 
     67 H67       -83.0528   23.1692  -72.8997 H         1 UNK         0.0900 
     68 H68       -82.8739   22.3159  -74.4346 H         1 UNK         0.0900 
     69 H69       -84.3363   23.2478  -74.1098 H         1 UNK         0.0900 
     70 H70       -82.0551   25.1767  -72.7970 H         1 UNK         0.2959 
     71 H71       -82.1406   27.1593  -74.7655 H         1 UNK         0.1079 
     72 H72       -81.6886   27.4112  -72.2312 H         1 UNK         0.0837 
     73 H73       -80.0202   27.0162  -72.5536 H         1 UNK         0.0837 
     74 H74       -80.6376   30.9721  -71.8692 H         1 UNK         0.0685 
     75 H75       -81.0076   29.4649  -71.0798 H         1 UNK         0.0685 
     76 H76       -79.1515   27.9017  -70.4271 H         1 UNK         0.1434 
     77 H77       -75.2077   29.5734  -70.2226 H         1 UNK         0.1329 
     78 H78       -78.3385   31.6909  -72.2536 H         1 UNK         0.1335 
     79 H79       -76.2834   32.7902  -71.8887 H         1 UNK         0.0680 
     80 H80       -75.2396   32.2296  -70.6164 H         1 UNK         0.0680 
     81 H81       -73.2857   30.8961  -70.7827 H         1 UNK         0.1032 
     82 H82       -72.5022   32.1959  -71.6232 H         1 UNK         0.1032 
     83 H83       -71.0922   30.2579  -71.7656 H         1 UNK         0.0461 
     84 H84       -73.1478   27.1692  -73.3950 H         1 UNK         0.3453 
     85 H85       -72.6522   28.5537  -74.3484 H         1 UNK         0.3453 
     86 H86       -72.2418   31.2098  -74.2521 H         1 UNK         0.2984 
     87 H87       -71.0838   31.4663  -76.0514 H         1 UNK         0.0554 
     88 H88       -68.8706   31.8281  -77.0852 H         1 UNK         0.0847 
     89 H89       -68.1034   30.7602  -75.9091 H         1 UNK         0.0847 
     90 H90       -68.8103   32.2834  -75.3911 H         1 UNK         0.0847 
     91 H91       -69.6395   29.4059  -77.3306 H         1 UNK         0.3141 
     92 H92       -71.4081   28.0448  -78.8305 H         1 UNK         0.0743 
     93 H93       -69.2904   27.2623  -77.7512 H         1 UNK         0.0784 
     94 H94       -70.1993   26.3888  -76.5229 H         1 UNK         0.0784 
     95 H95       -70.2425   25.8627  -78.2036 H         1 UNK         0.0784 
     96 H96       -73.1062   27.0297  -76.7352 H         1 UNK         0.3213 
     97 H97       -75.4393   25.7848  -78.8689 H         1 UNK         0.0855 
     98 H98       -74.2408   23.5967  -78.8518 H         1 UNK         0.0814 
     99 H99       -75.5119   23.6135  -77.6415 H         1 UNK         0.0814 
    100 H100      -73.8269   23.8095  -77.1557 H         1 UNK         0.0814 
    101 H101      -74.9619   25.6548  -75.9802 H         1 UNK         0.3105 
    102 H102      -75.1943   28.2257  -74.8359 H         1 UNK         0.0547 
    103 H103      -76.8527   29.7885  -75.7697 H         1 UNK         0.0837 
    104 H104      -78.1266   28.5858  -75.6215 H         1 UNK         0.0837 
    105 H105      -77.3517   29.2411  -74.1818 H         1 UNK         0.0837 
    106 H106      -77.5366   26.5931  -74.2582 H         1 UNK         0.3020 
    107 H107      -75.5463   24.1793  -72.4702 H         1 UNK         0.1245 
    108 H108      -77.5070   24.7880  -70.9491 H         1 UNK         0.0781 
    109 H109      -77.6691   26.2845  -71.8240 H         1 UNK         0.0781 
    110 H110      -76.0372   27.7432  -68.6160 H         1 UNK         0.0836 
    111 H111      -77.4969   26.8718  -69.0017 H         1 UNK         0.0836 
    112 H112      -78.0539   24.5605  -74.0334 H         1 UNK         0.3022 
    113 H113      -78.5196   20.9991  -74.0460 H         1 UNK         0.0747 
    114 H114      -80.7971   21.5769  -73.2912 H         1 UNK         0.0793 
    115 H115      -79.6607   21.7366  -71.9653 H         1 UNK         0.0793 
    116 H116      -80.2542   23.1775  -72.7784 H         1 UNK         0.0793 
    117 H117      -79.4092   23.6156  -75.2319 H         1 UNK         0.3047 
    118 H118      -79.3520   22.3488  -78.4285 H         1 UNK         0.0822 
    119 H119      -81.8332   22.4385  -78.7113 H         1 UNK         0.0807 
    120 H120      -82.0487   22.1629  -76.9834 H         1 UNK         0.0807 
    121 H121      -81.3241   20.9204  -77.9924 H         1 UNK         0.0807 
    122 H122      -80.9525   24.3905  -77.0210 H         1 UNK         0.2946 
    123 H123      -78.4384   26.8259  -77.2163 H         1 UNK         0.1144 
    124 H124      -79.9325   28.1789  -78.6552 H         1 UNK         0.0793 
    125 H125      -80.8154   26.7309  -79.1458 H         1 UNK         0.0793 
    126 H126      -79.1324   26.9441  -79.6107 H         1 UNK         0.0793 
    127 H127      -81.2051   27.1399  -76.7203 H         1 UNK         0.2896 
@<TRIPOS>BOND
     1    1    2 1    
     2    1   67 1    
     3    1   68 1    
     4    1   69 1    
     5    2    3 2    
     6    2    4 am   BACKBONE|DICT|INTERRES
     7    4    5 1    
     8    4   70 1    
     9    5    6 1    
    10    5   65 1    
    11    5   71 1    
    12    6    7 1    
    13    6   72 1    
    14    6   73 1    
    15    7    8 1    
    16    8    9 1    
    17    8   74 1    
    18    8   75 1    
    19    9   10 ar   
    20    9   14 ar   
    21   10   11 ar   
    22   10   76 1    
    23   11   12 ar   
    24   11   48 1    
    25   12   13 ar   
    26   12   77 1    
    27   13   14 ar   
    28   13   15 1    
    29   14   78 1    
    30   15   16 1    
    31   15   79 1    
    32   15   80 1    
    33   16   17 1    
    34   17   18 1    
    35   17   81 1    
    36   17   82 1    
    37   18   19 1    
    38   18   22 1    
    39   18   83 1    
    40   19   20 am   BACKBONE|DICT|INTERRES
    41   19   21 2    
    42   20   84 1    
    43   20   85 1    
    44   22   23 am   BACKBONE|DICT|INTERRES
    45   22   86 1    
    46   23   24 2    
    47   23   25 1    
    48   25   26 1    
    49   25   27 1    
    50   25   87 1    
    51   26   88 1    
    52   26   89 1    
    53   26   90 1    
    54   27   28 am   BACKBONE|DICT|INTERRES
    55   27   91 1    
    56   28   29 2    
    57   28   30 1    
    58   30   31 1    
    59   30   32 1    
    60   30   92 1    
    61   31   93 1    
    62   31   94 1    
    63   31   95 1    
    64   32   33 am   BACKBONE|DICT|INTERRES
    65   32   96 1    
    66   33   34 2    
    67   33   35 1    
    68   35   36 1    
    69   35   37 1    
    70   35   97 1    
    71   36   98 1    
    72   36   99 1    
    73   36  100 1    
    74   37   38 am   BACKBONE|DICT|INTERRES
    75   37  101 1    
    76   38   39 2    
    77   38   40 1    
    78   40   41 1    
    79   40   42 1    
    80   40  102 1    
    81   41  103 1    
    82   41  104 1    
    83   41  105 1    
    84   42   43 am   BACKBONE|DICT|INTERRES
    85   42  106 1    
    86   43   44 2    
    87   43   45 1    
    88   45   46 1    
    89   45   49 1    
    90   45  107 1    
    91   46   47 1    
    92   46  108 1    
    93   46  109 1    
    94   47   48 1    
    95   48  110 1    
    96   48  111 1    
    97   49   50 am   BACKBONE|DICT|INTERRES
    98   49  112 1    
    99   50   51 2    
   100   50   52 1    
   101   52   53 1    
   102   52   54 1    
   103   52  113 1    
   104   53  114 1    
   105   53  115 1    
   106   53  116 1    
   107   54   55 am   BACKBONE|DICT|INTERRES
   108   54  117 1    
   109   55   56 2    
   110   55   57 1    
   111   57   58 1    
   112   57   59 1    
   113   57  118 1    
   114   58  119 1    
   115   58  120 1    
   116   58  121 1    
   117   59   60 am   BACKBONE|DICT|INTERRES
   118   59  122 1    
   119   60   61 2    
   120   60   62 1    
   121   62   63 1    
   122   62   64 1    
   123   62  123 1    
   124   63  124 1    
   125   63  125 1    
   126   63  126 1    
   127   64   65 am   BACKBONE|DICT|INTERRES
   128   64  127 1    
   129   65   66 2    
@<TRIPOS>SUBSTRUCTURE
     1 UNK         1 GROUP             0       ****    0 ROOT    
