@<TRIPOS>MOLECULE
3R135
127   129    1
SMALL
USER_CHARGES


@<TRIPOS>ATOM
      1 CA        -82.7184   30.7278  -73.8410 C.3       0 UNK        -0.1998 
      2 C         -81.3560   30.0577  -73.7432 C.2       0 UNK         0.4909 
      3 O         -80.3634   30.6245  -74.1969 O.2       0 UNK        -0.5240 
      4 N         -81.3048   28.8602  -73.1475 N.am      1 UNK        -0.4739 
      5 CA        -80.1004   28.0385  -72.9883 C.3       1 UNK         0.0864 
      6 C6        -80.3499   26.8722  -72.0016 C.3       11 UNK        -0.0881 
      7 S7        -80.7370   27.4672  -70.3195 S.3       11 UNK        -0.2682 
      8 C8        -79.1820   27.1356  -69.4310 C.3       11 UNK         0.0289 
      9 C9        -77.9932   27.8287  -70.0808 C.ar      11 UNK        -0.0687 
     10 C10       -77.0101   27.0767  -70.7289 C.ar      11 UNK        -0.0823 
     11 C11       -75.9271   27.7046  -71.3505 C.ar      11 UNK        -0.0830 
     12 C12       -75.8218   29.0989  -71.2976 C.ar      11 UNK        -0.1021 
     13 C13       -76.7962   29.8626  -70.6473 C.ar      11 UNK        -0.0753 
     14 C14       -77.8795   29.2207  -70.0404 C.ar      11 UNK        -0.0933 
     15 C15       -76.6768   31.3780  -70.5785 C.3       11 UNK         0.0166 
     16 S16       -77.1340   32.1696  -72.1547 S.3       11 UNK        -0.2615 
     17 C17       -75.5188   32.3391  -72.9931 C.3       11 UNK        -0.0865 
     18 CA        -75.3049   31.3263  -74.1532 C.3       10 UNK         0.0862 
     19 C         -75.9229   31.8252  -75.4973 C.2       10 UNK         0.5551 
     20 N         -75.1558   31.9669  -76.5721 N.am      10 UNK        -0.7319 
     21 O         -77.1185   32.0895  -75.5722 O.2       10 UNK        -0.5018 
     22 N         -73.8846   30.9420  -74.2384 N.am      10 UNK        -0.4509 
     23 C         -73.4218   29.8112  -74.7836 C.2       10 UNK         0.4899 
     24 O         -74.1498   28.9328  -75.2504 O.2       10 UNK        -0.4839 
     25 CA        -71.8871   29.6787  -74.8748 C.3       9 UNK         0.0222 
     26 CB        -71.1399   30.2285  -73.6374 C.3       9 UNK        -0.1966 
     27 N         -71.4887   28.3062  -75.2026 N.am      9 UNK        -0.4218 
     28 C         -71.5037   27.2234  -74.4132 C.2       9 UNK         0.5020 
     29 O         -71.6479   27.2535  -73.1900 O.2       9 UNK        -0.5274 
     30 CA        -71.3630   25.8707  -75.1410 C.3       8 UNK         0.0270 
     31 CB        -71.2337   24.6865  -74.1656 C.3       8 UNK        -0.1976 
     32 N         -72.5048   25.6367  -76.0322 N.am      8 UNK        -0.4313 
     33 C         -72.6991   26.2484  -77.2109 C.2       8 UNK         0.5041 
     34 O         -71.8675   27.0085  -77.7145 O.2       8 UNK        -0.5577 
     35 CA        -74.0496   26.0256  -77.9182 C.3       7 UNK         0.0284 
     36 CB        -73.9863   26.2764  -79.4398 C.3       7 UNK        -0.1958 
     37 N         -74.6657   24.7305  -77.6201 N.am      7 UNK        -0.4454 
     38 C         -74.1943   23.5102  -77.9146 C.2       7 UNK         0.5089 
     39 O         -73.1538   23.3075  -78.5425 O.2       7 UNK        -0.5125 
     40 CA        -75.0334   22.3167  -77.4110 C.3       6 UNK         0.0408 
     41 CB        -74.2156   21.0113  -77.3183 C.3       6 UNK        -0.1791 
     42 N         -75.7288   22.5808  -76.1438 N.am      6 UNK        -0.4762 
     43 C         -75.1742   22.9241  -74.9675 C.2       6 UNK         0.5007 
     44 O         -73.9609   23.0560  -74.8087 O.2       6 UNK        -0.5032 
     45 CA        -76.1279   23.1670  -73.7770 C.3       5 UNK         0.0783 
     46 C46       -75.6286   24.2549  -72.7858 C.3       11 UNK        -0.0857 
     47 S47       -75.5213   25.9456  -73.4722 S.3       11 UNK        -0.2512 
     48 C48       -74.8575   26.8838  -72.0592 C.3       11 UNK         0.0225 
     49 N         -77.4957   23.4165  -74.2470 N.am      5 UNK        -0.4615 
     50 C         -78.5246   22.5704  -74.0952 C.2       4 UNK         0.5053 
     51 O         -78.4534   21.5216  -73.4546 O.2       4 UNK        -0.5105 
     52 CA        -79.8594   22.9242  -74.7801 C.3       4 UNK         0.0263 
     53 CB        -80.8507   23.4907  -73.7564 C.3       4 UNK        -0.1981 
     54 N         -79.7227   23.8644  -75.8959 N.am      4 UNK        -0.4224 
     55 C         -79.1589   23.5562  -77.0737 C.2       3 UNK         0.4895 
     56 O         -78.7196   22.4391  -77.3476 O.2       3 UNK        -0.5091 
     57 CA        -79.0024   24.6930  -78.1012 C.3       3 UNK         0.0250 
     58 CB        -80.2091   24.7290  -79.0518 C.3       3 UNK        -0.1996 
     59 N         -78.8143   26.0195  -77.5034 N.am      3 UNK        -0.4254 
     60 C         -77.8374   26.3431  -76.6447 C.2       2 UNK         0.5004 
     61 O         -76.9844   25.5402  -76.2724 O.2       2 UNK        -0.5226 
     62 CA        -77.8077   27.7821  -76.1003 C.3       2 UNK         0.0269 
     63 CB        -78.4335   28.8077  -77.0698 C.3       2 UNK        -0.1926 
     64 N         -78.4108   27.9236  -74.7675 N.am      2 UNK        -0.4687 
     65 C         -79.6278   27.5254  -74.3651 C.2       1 UNK         0.5165 
     66 O         -80.3846   26.8127  -75.0309 O.2       1 UNK        -0.5079 
     67 H67       -82.6992   31.6917  -73.3332 H         1 UNK         0.0900 
     68 H68       -82.9783   30.8976  -74.8855 H         1 UNK         0.0900 
     69 H69       -83.5045   30.1226  -73.3897 H         1 UNK         0.0900 
     70 H70       -82.1562   28.4451  -72.7979 H         1 UNK         0.2959 
     71 H71       -79.3168   28.6766  -72.5731 H         1 UNK         0.1079 
     72 H72       -79.4910   26.2000  -71.9627 H         1 UNK         0.0837 
     73 H73       -81.1970   26.2720  -72.3366 H         1 UNK         0.0837 
     74 H74       -79.0249   26.0571  -69.3786 H         1 UNK         0.0685 
     75 H75       -79.2818   27.4811  -68.4011 H         1 UNK         0.0685 
     76 H76       -77.0943   26.0007  -70.7565 H         1 UNK         0.1434 
     77 H77       -74.9796   29.5931  -71.7614 H         1 UNK         0.1329 
     78 H78       -78.6417   29.8023  -69.5398 H         1 UNK         0.1335 
     79 H79       -77.3367   31.7681  -69.8020 H         1 UNK         0.0680 
     80 H80       -75.6684   31.6610  -70.2748 H         1 UNK         0.0680 
     81 H81       -75.4177   33.3664  -73.3487 H         1 UNK         0.1032 
     82 H82       -74.7349   32.2279  -72.2431 H         1 UNK         0.1032 
     83 H83       -75.8543   30.4156  -73.9068 H         1 UNK         0.0461 
     84 H84       -75.5690   32.2903  -77.4324 H         1 UNK         0.3453 
     85 H85       -74.1732   31.7530  -76.5324 H         1 UNK         0.3453 
     86 H86       -73.2189   31.6297  -73.9183 H         1 UNK         0.2984 
     87 H87       -71.5821   30.2780  -75.7336 H         1 UNK         0.0554 
     88 H88       -71.2183   31.3140  -73.5744 H         1 UNK         0.0847 
     89 H89       -70.0768   29.9916  -73.6795 H         1 UNK         0.0847 
     90 H90       -71.5350   29.8194  -72.7067 H         1 UNK         0.0847 
     91 H91       -71.4357   28.1058  -76.1995 H         1 UNK         0.3141 
     92 H92       -70.4506   25.9094  -75.7398 H         1 UNK         0.0743 
     93 H93       -70.3637   24.8062  -73.5188 H         1 UNK         0.0784 
     94 H94       -71.1160   23.7432  -74.6992 H         1 UNK         0.0784 
     95 H95       -72.1100   24.5985  -73.5216 H         1 UNK         0.0784 
     96 H96       -73.2294   25.0231  -75.6778 H         1 UNK         0.3213 
     97 H97       -74.7202   26.7749  -77.4943 H         1 UNK         0.0855 
     98 H98       -73.2750   25.6118  -79.9308 H         1 UNK         0.0814 
     99 H99       -73.6745   27.2993  -79.6545 H         1 UNK         0.0814 
    100 H100      -74.9606   26.1321  -79.9065 H         1 UNK         0.0814 
    101 H101      -75.5254   24.7916  -77.0746 H         1 UNK         0.3105 
    102 H102      -75.8153   22.1638  -78.1562 H         1 UNK         0.0547 
    103 H103      -74.8317   20.1799  -76.9767 H         1 UNK         0.0837 
    104 H104      -73.3733   21.1097  -76.6327 H         1 UNK         0.0837 
    105 H105      -73.8104   20.7327  -78.2917 H         1 UNK         0.0837 
    106 H106      -76.7386   22.5170  -76.1872 H         1 UNK         0.3020 
    107 H107      -76.1028   22.2243  -73.2261 H         1 UNK         0.1245 
    108 H108      -74.6466   23.9814  -72.3954 H         1 UNK         0.0781 
    109 H109      -76.2908   24.2718  -71.9211 H         1 UNK         0.0781 
    110 H110      -74.0789   27.5445  -72.4392 H         1 UNK         0.0836 
    111 H111      -74.3695   26.2159  -71.3485 H         1 UNK         0.0836 
    112 H112      -77.6032   24.2498  -74.8173 H         1 UNK         0.3022 
    113 H113      -80.2779   21.9960  -75.1755 H         1 UNK         0.0747 
    114 H114      -81.8056   23.7447  -74.2171 H         1 UNK         0.0793 
    115 H115      -81.0515   22.7683  -72.9640 H         1 UNK         0.0793 
    116 H116      -80.4507   24.3855  -73.2868 H         1 UNK         0.0793 
    117 H117      -80.0297   24.8190  -75.7373 H         1 UNK         0.3047 
    118 H118      -78.1087   24.4739  -78.6894 H         1 UNK         0.0822 
    119 H119      -80.0663   25.4599  -79.8480 H         1 UNK         0.0807 
    120 H120      -81.1305   24.9802  -78.5248 H         1 UNK         0.0807 
    121 H121      -80.3597   23.7592  -79.5285 H         1 UNK         0.0807 
    122 H122      -79.5027   26.7232  -77.7279 H         1 UNK         0.2946 
    123 H123      -76.7513   28.0354  -75.9879 H         1 UNK         0.1144 
    124 H124      -78.2506   29.8260  -76.7263 H         1 UNK         0.0793 
    125 H125      -79.5135   28.6877  -77.1609 H         1 UNK         0.0793 
    126 H126      -78.0006   28.7252  -78.0678 H         1 UNK         0.0793 
    127 H127      -77.8559   28.4574  -74.1132 H         1 UNK         0.2896 
@<TRIPOS>BOND
     1    1    2 1    
     2    1   67 1    
     3    1   68 1    
     4    1   69 1    
     5    2    3 2    
     6    2    4 am   BACKBONE|DICT|INTERRES
     7    4    5 1    
     8    4   70 1    
     9    5    6 1    
    10    5   65 1    
    11    5   71 1    
    12    6    7 1    
    13    6   72 1    
    14    6   73 1    
    15    7    8 1    
    16    8    9 1    
    17    8   74 1    
    18    8   75 1    
    19    9   10 ar   
    20    9   14 ar   
    21   10   11 ar   
    22   10   76 1    
    23   11   12 ar   
    24   11   48 1    
    25   12   13 ar   
    26   12   77 1    
    27   13   14 ar   
    28   13   15 1    
    29   14   78 1    
    30   15   16 1    
    31   15   79 1    
    32   15   80 1    
    33   16   17 1    
    34   17   18 1    
    35   17   81 1    
    36   17   82 1    
    37   18   19 1    
    38   18   22 1    
    39   18   83 1    
    40   19   20 am   BACKBONE|DICT|INTERRES
    41   19   21 2    
    42   20   84 1    
    43   20   85 1    
    44   22   23 am   BACKBONE|DICT|INTERRES
    45   22   86 1    
    46   23   24 2    
    47   23   25 1    
    48   25   26 1    
    49   25   27 1    
    50   25   87 1    
    51   26   88 1    
    52   26   89 1    
    53   26   90 1    
    54   27   28 am   BACKBONE|DICT|INTERRES
    55   27   91 1    
    56   28   29 2    
    57   28   30 1    
    58   30   31 1    
    59   30   32 1    
    60   30   92 1    
    61   31   93 1    
    62   31   94 1    
    63   31   95 1    
    64   32   33 am   BACKBONE|DICT|INTERRES
    65   32   96 1    
    66   33   34 2    
    67   33   35 1    
    68   35   36 1    
    69   35   37 1    
    70   35   97 1    
    71   36   98 1    
    72   36   99 1    
    73   36  100 1    
    74   37   38 am   BACKBONE|DICT|INTERRES
    75   37  101 1    
    76   38   39 2    
    77   38   40 1    
    78   40   41 1    
    79   40   42 1    
    80   40  102 1    
    81   41  103 1    
    82   41  104 1    
    83   41  105 1    
    84   42   43 am   BACKBONE|DICT|INTERRES
    85   42  106 1    
    86   43   44 2    
    87   43   45 1    
    88   45   46 1    
    89   45   49 1    
    90   45  107 1    
    91   46   47 1    
    92   46  108 1    
    93   46  109 1    
    94   47   48 1    
    95   48  110 1    
    96   48  111 1    
    97   49   50 am   BACKBONE|DICT|INTERRES
    98   49  112 1    
    99   50   51 2    
   100   50   52 1    
   101   52   53 1    
   102   52   54 1    
   103   52  113 1    
   104   53  114 1    
   105   53  115 1    
   106   53  116 1    
   107   54   55 am   BACKBONE|DICT|INTERRES
   108   54  117 1    
   109   55   56 2    
   110   55   57 1    
   111   57   58 1    
   112   57   59 1    
   113   57  118 1    
   114   58  119 1    
   115   58  120 1    
   116   58  121 1    
   117   59   60 am   BACKBONE|DICT|INTERRES
   118   59  122 1    
   119   60   61 2    
   120   60   62 1    
   121   62   63 1    
   122   62   64 1    
   123   62  123 1    
   124   63  124 1    
   125   63  125 1    
   126   63  126 1    
   127   64   65 am   BACKBONE|DICT|INTERRES
   128   64  127 1    
   129   65   66 2    
@<TRIPOS>SUBSTRUCTURE
     1 UNK         1 GROUP             0       ****    0 ROOT    
