@<TRIPOS>MOLECULE
3R135
127   129    1
SMALL
USER_CHARGES


@<TRIPOS>ATOM
      1 CA        -80.2782   22.4778  -73.9340 C.3       0 UNK        -0.1998 
      2 C         -81.2856   23.5567  -73.5631 C.2       0 UNK         0.4909 
      3 O         -82.4197   23.2414  -73.2023 O.2       0 UNK        -0.5240 
      4 N         -80.8771   24.8255  -73.6650 N.am      1 UNK        -0.4739 
      5 CA        -81.7022   26.0139  -73.4133 C.3       1 UNK         0.0864 
      6 C6        -80.9499   27.0487  -72.5359 C.3       11 UNK        -0.0881 
      7 S7        -80.6163   26.4210  -70.8576 S.3       11 UNK        -0.2682 
      8 C8        -79.9229   27.9055  -70.0603 C.3       11 UNK         0.0289 
      9 C9        -78.5200   28.2067  -70.5660 C.ar      11 UNK        -0.0687 
     10 C10       -77.4500   27.4094  -70.1558 C.ar      11 UNK        -0.0823 
     11 C11       -76.1639   27.6295  -70.6560 C.ar      11 UNK        -0.0830 
     12 C12       -75.9472   28.6886  -71.5409 C.ar      11 UNK        -0.1021 
     13 C13       -77.0006   29.5316  -71.9223 C.ar      11 UNK        -0.0753 
     14 C14       -78.2884   29.2708  -71.4421 C.ar      11 UNK        -0.0933 
     15 C15       -76.7900   30.6996  -72.8832 C.3       11 UNK         0.0166 
     16 S16       -75.1534   31.4942  -72.7427 S.3       11 UNK        -0.2615 
     17 C17       -74.8213   31.8933  -74.4917 C.3       11 UNK        -0.0865 
     18 CA        -74.3037   30.6773  -75.3079 C.3       10 UNK         0.0862 
     19 C         -74.0849   31.0760  -76.7889 C.2       10 UNK         0.5551 
     20 N         -75.1297   31.0212  -77.6010 N.am      10 UNK        -0.7319 
     21 O         -72.9961   31.4778  -77.1963 O.2       10 UNK        -0.5018 
     22 N         -73.0723   30.1137  -74.7399 N.am      10 UNK        -0.4509 
     23 C         -72.9291   28.8650  -74.2863 C.2       10 UNK         0.4899 
     24 O         -73.8321   28.0277  -74.2357 O.2       10 UNK        -0.4839 
     25 CA        -71.5232   28.4813  -73.7999 C.3       9 UNK         0.0222 
     26 CB        -71.5662   27.9125  -72.3713 C.3       9 UNK        -0.1966 
     27 N         -70.9334   27.4929  -74.7003 N.am      9 UNK        -0.4218 
     28 C         -70.4637   27.7595  -75.9273 C.2       9 UNK         0.5020 
     29 O         -70.3627   28.8983  -76.3857 O.2       9 UNK        -0.5274 
     30 CA        -70.0175   26.5644  -76.7944 C.3       8 UNK         0.0270 
     31 CB        -68.4837   26.4509  -76.8039 C.3       8 UNK        -0.1976 
     32 N         -70.5919   25.2757  -76.3890 N.am      8 UNK        -0.4313 
     33 C         -71.8902   24.9574  -76.4745 C.2       8 UNK         0.5041 
     34 O         -72.7530   25.7134  -76.9293 O.2       8 UNK        -0.5577 
     35 CA        -72.2909   23.5737  -75.9453 C.3       7 UNK         0.0284 
     36 CB        -71.9369   23.4082  -74.4526 C.3       7 UNK        -0.1958 
     37 N         -73.7303   23.4197  -76.1138 N.am      7 UNK        -0.4454 
     38 C         -74.4026   22.2706  -76.2236 C.2       7 UNK         0.5089 
     39 O         -73.8656   21.1622  -76.2752 O.2       7 UNK        -0.5125 
     40 CA        -75.9405   22.4027  -76.2411 C.3       6 UNK         0.0408 
     41 CB        -76.6660   21.0458  -76.1222 C.3       6 UNK        -0.1791 
     42 N         -76.4291   23.3448  -75.2220 N.am      6 UNK        -0.4762 
     43 C         -76.2171   23.2897  -73.8951 C.2       6 UNK         0.5007 
     44 O         -75.6223   22.3606  -73.3469 O.2       6 UNK        -0.5032 
     45 CA        -76.7592   24.4659  -73.0454 C.3       5 UNK         0.0783 
     46 C46       -76.1634   24.5189  -71.6082 C.3       11 UNK        -0.0857 
     47 S47       -74.5983   25.4592  -71.4733 S.3       11 UNK        -0.2512 
     48 C48       -75.0098   26.7298  -70.2289 C.3       11 UNK         0.0225 
     49 N         -76.6445   25.7537  -73.7476 N.am      5 UNK        -0.4615 
     50 C         -77.5081   26.2317  -74.6449 C.2       4 UNK         0.5053 
     51 O         -78.5450   25.6458  -74.9662 O.2       4 UNK        -0.5105 
     52 CA        -77.1245   27.5332  -75.3515 C.3       4 UNK         0.0263 
     53 CB        -76.1778   27.2359  -76.5308 C.3       4 UNK        -0.1981 
     54 N         -78.3536   28.1585  -75.8268 N.am      4 UNK        -0.4224 
     55 C         -78.4978   29.3886  -76.3327 C.2       3 UNK         0.4895 
     56 O         -77.5676   30.1866  -76.4515 O.2       3 UNK        -0.5091 
     57 CA        -79.9181   29.8259  -76.7535 C.3       3 UNK         0.0250 
     58 CB        -79.9141   30.6097  -78.0831 C.3       3 UNK        -0.1996 
     59 N         -80.9077   28.7375  -76.7768 N.am      3 UNK        -0.4254 
     60 C         -80.9429   27.6654  -77.5830 C.2       2 UNK         0.5004 
     61 O         -80.1500   27.4671  -78.5043 O.2       2 UNK        -0.5226 
     62 CA        -82.0047   26.6046  -77.2352 C.3       2 UNK         0.0269 
     63 CB        -82.0232   25.4310  -78.2326 C.3       2 UNK        -0.1926 
     64 N         -81.7731   26.0740  -75.8884 N.am      2 UNK        -0.4687 
     65 C         -82.1522   26.6597  -74.7422 C.2       1 UNK         0.5165 
     66 O         -82.8008   27.7071  -74.7181 O.2       1 UNK        -0.5079 
     67 H67       -79.4291   22.8864  -74.4813 H         1 UNK         0.0900 
     68 H68       -80.7489   21.7235  -74.5641 H         1 UNK         0.0900 
     69 H69       -79.9050   21.9871  -73.0356 H         1 UNK         0.0900 
     70 H70       -79.9429   25.0274  -74.0174 H         1 UNK         0.2959 
     71 H71       -82.6184   25.7304  -72.8905 H         1 UNK         0.1079 
     72 H72       -81.5326   27.9661  -72.4309 H         1 UNK         0.0837 
     73 H73       -80.0045   27.3346  -73.0005 H         1 UNK         0.0837 
     74 H74       -80.5890   28.7546  -70.2207 H         1 UNK         0.0685 
     75 H75       -79.8896   27.7431  -68.9820 H         1 UNK         0.0685 
     76 H76       -77.6301   26.5963  -69.4659 H         1 UNK         0.1434 
     77 H77       -74.9519   28.8518  -71.9294 H         1 UNK         0.1329 
     78 H78       -79.1145   29.8951  -71.7542 H         1 UNK         0.1335 
     79 H79       -76.9387   30.3338  -73.8960 H         1 UNK         0.0680 
     80 H80       -77.5501   31.4655  -72.7218 H         1 UNK         0.0680 
     81 H81       -74.0935   32.7064  -74.5187 H         1 UNK         0.1032 
     82 H82       -75.7352   32.2928  -74.9367 H         1 UNK         0.1032 
     83 H83       -75.0815   29.9132  -75.3006 H         1 UNK         0.0461 
     84 H84       -75.0256   31.2915  -78.5656 H         1 UNK         0.3453 
     85 H85       -76.0376   30.7192  -77.2495 H         1 UNK         0.3453 
     86 H86       -72.2540   30.7000  -74.8251 H         1 UNK         0.2984 
     87 H87       -70.8888   29.3704  -73.7883 H         1 UNK         0.0554 
     88 H88       -70.5643   27.7049  -71.9956 H         1 UNK         0.0847 
     89 H89       -72.1413   26.9876  -72.3209 H         1 UNK         0.0847 
     90 H90       -72.0309   28.6209  -71.6842 H         1 UNK         0.0847 
     91 H91       -71.0096   26.5266  -74.4224 H         1 UNK         0.3141 
     92 H92       -70.3497   26.7689  -77.8146 H         1 UNK         0.0743 
     93 H93       -68.0885   26.2280  -75.8119 H         1 UNK         0.0784 
     94 H94       -68.1464   25.6695  -77.4853 H         1 UNK         0.0784 
     95 H95       -68.0253   27.3843  -77.1342 H         1 UNK         0.0784 
     96 H96       -69.9471   24.5928  -76.0165 H         1 UNK         0.3213 
     97 H97       -71.7712   22.8185  -76.5390 H         1 UNK         0.0855 
     98 H98       -72.4105   24.1772  -73.8401 H         1 UNK         0.0814 
     99 H99       -70.8615   23.4657  -74.2831 H         1 UNK         0.0814 
    100 H100      -72.2653   22.4400  -74.0735 H         1 UNK         0.0814 
    101 H101      -74.2292   24.2988  -76.1712 H         1 UNK         0.3105 
    102 H102      -76.2008   22.8321  -77.2097 H         1 UNK         0.0547 
    103 H103      -76.3887   20.3823  -76.9421 H         1 UNK         0.0837 
    104 H104      -76.4178   20.5327  -75.1927 H         1 UNK         0.0837 
    105 H105      -77.7482   21.1695  -76.1585 H         1 UNK         0.0837 
    106 H106      -76.9605   24.1328  -75.5696 H         1 UNK         0.3020 
    107 H107      -77.8215   24.2450  -72.9214 H         1 UNK         0.1245 
    108 H108      -76.0060   23.5243  -71.1881 H         1 UNK         0.0781 
    109 H109      -76.9060   24.9583  -70.9474 H         1 UNK         0.0781 
    110 H110      -74.1238   27.3400  -70.0470 H         1 UNK         0.0836 
    111 H111      -75.2373   26.2395  -69.2811 H         1 UNK         0.0836 
    112 H112      -75.8039   26.2803  -73.5427 H         1 UNK         0.3022 
    113 H113      -76.6334   28.1897  -74.6334 H         1 UNK         0.0747 
    114 H114      -75.2764   26.7238  -76.1918 H         1 UNK         0.0793 
    115 H115      -76.6543   26.6028  -77.2803 H         1 UNK         0.0793 
    116 H116      -75.8515   28.1499  -77.0258 H         1 UNK         0.0793 
    117 H117      -79.1611   27.5514  -75.7747 H         1 UNK         0.3047 
    118 H118      -80.2535   30.5115  -75.9739 H         1 UNK         0.0822 
    119 H119      -80.9192   30.9269  -78.3609 H         1 UNK         0.0807 
    120 H120      -79.5091   30.0166  -78.9034 H         1 UNK         0.0807 
    121 H121      -79.3026   31.5095  -78.0048 H         1 UNK         0.0807 
    122 H122      -81.6020   28.7659  -76.0362 H         1 UNK         0.2946 
    123 H123      -82.9817   27.0928  -77.2727 H         1 UNK         0.1144 
    124 H124      -82.8101   24.7168  -77.9893 H         1 UNK         0.0793 
    125 H125      -81.0741   24.8934  -78.2436 H         1 UNK         0.0793 
    126 H126      -82.2106   25.7841  -79.2476 H         1 UNK         0.0793 
    127 H127      -81.2100   25.2378  -75.8234 H         1 UNK         0.2896 
@<TRIPOS>BOND
     1    1    2 1    
     2    1   67 1    
     3    1   68 1    
     4    1   69 1    
     5    2    3 2    
     6    2    4 am   BACKBONE|DICT|INTERRES
     7    4    5 1    
     8    4   70 1    
     9    5    6 1    
    10    5   65 1    
    11    5   71 1    
    12    6    7 1    
    13    6   72 1    
    14    6   73 1    
    15    7    8 1    
    16    8    9 1    
    17    8   74 1    
    18    8   75 1    
    19    9   10 ar   
    20    9   14 ar   
    21   10   11 ar   
    22   10   76 1    
    23   11   12 ar   
    24   11   48 1    
    25   12   13 ar   
    26   12   77 1    
    27   13   14 ar   
    28   13   15 1    
    29   14   78 1    
    30   15   16 1    
    31   15   79 1    
    32   15   80 1    
    33   16   17 1    
    34   17   18 1    
    35   17   81 1    
    36   17   82 1    
    37   18   19 1    
    38   18   22 1    
    39   18   83 1    
    40   19   20 am   BACKBONE|DICT|INTERRES
    41   19   21 2    
    42   20   84 1    
    43   20   85 1    
    44   22   23 am   BACKBONE|DICT|INTERRES
    45   22   86 1    
    46   23   24 2    
    47   23   25 1    
    48   25   26 1    
    49   25   27 1    
    50   25   87 1    
    51   26   88 1    
    52   26   89 1    
    53   26   90 1    
    54   27   28 am   BACKBONE|DICT|INTERRES
    55   27   91 1    
    56   28   29 2    
    57   28   30 1    
    58   30   31 1    
    59   30   32 1    
    60   30   92 1    
    61   31   93 1    
    62   31   94 1    
    63   31   95 1    
    64   32   33 am   BACKBONE|DICT|INTERRES
    65   32   96 1    
    66   33   34 2    
    67   33   35 1    
    68   35   36 1    
    69   35   37 1    
    70   35   97 1    
    71   36   98 1    
    72   36   99 1    
    73   36  100 1    
    74   37   38 am   BACKBONE|DICT|INTERRES
    75   37  101 1    
    76   38   39 2    
    77   38   40 1    
    78   40   41 1    
    79   40   42 1    
    80   40  102 1    
    81   41  103 1    
    82   41  104 1    
    83   41  105 1    
    84   42   43 am   BACKBONE|DICT|INTERRES
    85   42  106 1    
    86   43   44 2    
    87   43   45 1    
    88   45   46 1    
    89   45   49 1    
    90   45  107 1    
    91   46   47 1    
    92   46  108 1    
    93   46  109 1    
    94   47   48 1    
    95   48  110 1    
    96   48  111 1    
    97   49   50 am   BACKBONE|DICT|INTERRES
    98   49  112 1    
    99   50   51 2    
   100   50   52 1    
   101   52   53 1    
   102   52   54 1    
   103   52  113 1    
   104   53  114 1    
   105   53  115 1    
   106   53  116 1    
   107   54   55 am   BACKBONE|DICT|INTERRES
   108   54  117 1    
   109   55   56 2    
   110   55   57 1    
   111   57   58 1    
   112   57   59 1    
   113   57  118 1    
   114   58  119 1    
   115   58  120 1    
   116   58  121 1    
   117   59   60 am   BACKBONE|DICT|INTERRES
   118   59  122 1    
   119   60   61 2    
   120   60   62 1    
   121   62   63 1    
   122   62   64 1    
   123   62  123 1    
   124   63  124 1    
   125   63  125 1    
   126   63  126 1    
   127   64   65 am   BACKBONE|DICT|INTERRES
   128   64  127 1    
   129   65   66 2    
@<TRIPOS>SUBSTRUCTURE
     1 UNK         1 GROUP             0       ****    0 ROOT    
