@<TRIPOS>MOLECULE
3R135
127   129    1
SMALL
USER_CHARGES


@<TRIPOS>ATOM
      1 CA        -85.3136   29.3793  -76.4565 C.3       0 UNK        -0.1998 
      2 C         -83.8611   28.9598  -76.6265 C.2       0 UNK         0.4909 
      3 O         -83.3587   28.9373  -77.7505 O.2       0 UNK        -0.5240 
      4 N         -83.1835   28.6311  -75.5183 N.am      1 UNK        -0.4739 
      5 CA        -81.7819   28.1905  -75.4877 C.3       1 UNK         0.0864 
      6 C6        -81.2091   28.2261  -74.0473 C.3       11 UNK        -0.0881 
      7 S7        -80.8713   29.9428  -73.5340 S.3       11 UNK        -0.2682 
      8 C8        -80.3587   29.7403  -71.7977 C.3       11 UNK         0.0289 
      9 C9        -78.9425   29.1948  -71.6480 C.ar      11 UNK        -0.0687 
     10 C10       -78.7267   27.9664  -71.0143 C.ar      11 UNK        -0.0823 
     11 C11       -77.4273   27.4919  -70.8112 C.ar      11 UNK        -0.0830 
     12 C12       -76.3456   28.2446  -71.2676 C.ar      11 UNK        -0.1021 
     13 C13       -76.5380   29.4622  -71.9229 C.ar      11 UNK        -0.0753 
     14 C14       -77.8432   29.9383  -72.0976 C.ar      11 UNK        -0.0933 
     15 C15       -75.3482   30.2357  -72.4860 C.3       11 UNK         0.0166 
     16 S16       -74.1344   30.7518  -71.2275 S.3       11 UNK        -0.2615 
     17 C17       -72.9008   29.3962  -71.2425 C.3       11 UNK        -0.0865 
     18 CA        -71.7334   29.6402  -72.2373 C.3       10 UNK         0.0862 
     19 C         -70.4928   28.7506  -71.9204 C.2       10 UNK         0.5551 
     20 N         -69.8594   28.1017  -72.8914 N.am      10 UNK        -0.7319 
     21 O         -70.0806   28.6584  -70.7667 O.2       10 UNK        -0.5018 
     22 N         -72.1914   29.5097  -73.6296 N.am      10 UNK        -0.4509 
     23 C         -71.7989   30.2925  -74.6406 C.2       10 UNK         0.4899 
     24 O         -71.0541   31.2651  -74.5053 O.2       10 UNK        -0.4839 
     25 CA        -72.3235   29.9123  -76.0397 C.3       9 UNK         0.0222 
     26 CB        -71.6151   30.6804  -77.1753 C.3       9 UNK        -0.1966 
     27 N         -72.2957   28.4680  -76.3085 N.am      9 UNK        -0.4218 
     28 C         -71.2325   27.6482  -76.2610 C.2       9 UNK         0.5020 
     29 O         -70.1084   28.0186  -75.9193 O.2       9 UNK        -0.5274 
     30 CA        -71.4341   26.1607  -76.6216 C.3       8 UNK         0.0270 
     31 CB        -71.0499   25.2643  -75.4313 C.3       8 UNK        -0.1976 
     32 N         -72.7962   25.8234  -77.0417 N.am      8 UNK        -0.4313 
     33 C         -73.3445   26.1025  -78.2321 C.2       8 UNK         0.5041 
     34 O         -72.7264   26.6019  -79.1723 O.2       8 UNK        -0.5577 
     35 CA        -74.8584   25.8416  -78.3667 C.3       7 UNK         0.0284 
     36 CB        -75.1327   24.3909  -78.7923 C.3       7 UNK        -0.1958 
     37 N         -75.5906   26.1532  -77.1311 N.am      7 UNK        -0.4454 
     38 C         -75.6529   27.3800  -76.5914 C.2       7 UNK         0.5089 
     39 O         -75.1841   28.3831  -77.1276 O.2       7 UNK        -0.5125 
     40 CA        -76.2580   27.5108  -75.1901 C.3       6 UNK         0.0408 
     41 CB        -77.7691   27.7278  -75.2439 C.3       6 UNK        -0.1791 
     42 N         -75.9516   26.3588  -74.3452 N.am      6 UNK        -0.4762 
     43 C         -74.7928   26.1859  -73.6943 C.2       6 UNK         0.5007 
     44 O         -73.8787   27.0137  -73.6968 O.2       6 UNK        -0.5032 
     45 CA        -74.6026   24.8424  -72.9559 C.3       5 UNK         0.0783 
     46 C46       -75.0329   24.9097  -71.4672 C.3       11 UNK        -0.0857 
     47 S47       -76.8435   24.8044  -71.2040 S.3       11 UNK        -0.2512 
     48 C48       -77.1842   26.1856  -70.0698 C.3       11 UNK         0.0225 
     49 N         -75.2442   23.7198  -73.6473 N.am      5 UNK        -0.4615 
     50 C         -74.9189   23.2693  -74.8637 C.2       4 UNK         0.5053 
     51 O         -73.9882   23.7202  -75.5277 O.2       4 UNK        -0.5105 
     52 CA        -75.8073   22.1624  -75.4570 C.3       4 UNK         0.0263 
     53 CB        -75.2310   20.7782  -75.1218 C.3       4 UNK        -0.1981 
     54 N         -77.2079   22.2296  -75.0222 N.am      4 UNK        -0.4224 
     55 C         -78.0449   23.2430  -75.2852 C.2       3 UNK         0.4895 
     56 O         -77.7184   24.2628  -75.8985 O.2       3 UNK        -0.5091 
     57 CA        -79.4649   23.1074  -74.7245 C.3       3 UNK         0.0250 
     58 CB        -79.5298   23.6146  -73.2730 C.3       3 UNK        -0.1996 
     59 N         -80.4026   23.8640  -75.5499 N.am      3 UNK        -0.4254 
     60 C         -81.7117   23.6067  -75.6586 C.2       2 UNK         0.5004 
     61 O         -82.2747   22.6872  -75.0602 O.2       2 UNK        -0.5226 
     62 CA        -82.5332   24.5512  -76.5590 C.3       2 UNK         0.0269 
     63 CB        -83.9805   24.0658  -76.7677 C.3       2 UNK        -0.1926 
     64 N         -82.5691   25.9116  -76.0153 N.am      2 UNK        -0.4687 
     65 C         -81.5796   26.8062  -76.1380 C.2       1 UNK         0.5165 
     66 O         -80.5378   26.5718  -76.7506 O.2       1 UNK        -0.5079 
     67 H67       -85.9651   28.7107  -77.0185 H         1 UNK         0.0900 
     68 H68       -85.4579   30.3919  -76.8325 H         1 UNK         0.0900 
     69 H69       -85.6252   29.3580  -75.4123 H         1 UNK         0.0900 
     70 H70       -83.6422   28.6957  -74.6205 H         1 UNK         0.2959 
     71 H71       -81.2051   28.8864  -76.1022 H         1 UNK         0.1079 
     72 H72       -80.2850   27.6556  -73.9660 H         1 UNK         0.0837 
     73 H73       -81.9021   27.7641  -73.3416 H         1 UNK         0.0837 
     74 H74       -81.0819   29.1067  -71.2819 H         1 UNK         0.0685 
     75 H75       -80.4070   30.7140  -71.3084 H         1 UNK         0.0685 
     76 H76       -79.5690   27.3897  -70.6571 H         1 UNK         0.1434 
     77 H77       -75.3498   27.8714  -71.1125 H         1 UNK         0.1329 
     78 H78       -78.0106   30.8837  -72.5952 H         1 UNK         0.1335 
     79 H79       -75.6942   31.1306  -73.0050 H         1 UNK         0.0680 
     80 H80       -74.8452   29.6311  -73.2363 H         1 UNK         0.0680 
     81 H81       -72.5267   29.3200  -70.2199 H         1 UNK         0.1032 
     82 H82       -73.3650   28.4364  -71.4555 H         1 UNK         0.1032 
     83 H83       -71.3868   30.6621  -72.0735 H         1 UNK         0.0461 
     84 H84       -70.1374   28.2020  -73.8602 H         1 UNK         0.3453 
     85 H85       -69.0555   27.5410  -72.6592 H         1 UNK         0.3453 
     86 H86       -72.7701   28.6981  -73.8252 H         1 UNK         0.2984 
     87 H87       -73.3748   30.2028  -76.0535 H         1 UNK         0.0554 
     88 H88       -72.0317   30.4209  -78.1485 H         1 UNK         0.0847 
     89 H89       -70.5457   30.4679  -77.2006 H         1 UNK         0.0847 
     90 H90       -71.7305   31.7580  -77.0523 H         1 UNK         0.0847 
     91 H91       -73.1854   28.0761  -76.5941 H         1 UNK         0.3141 
     92 H92       -70.7574   25.9372  -77.4487 H         1 UNK         0.0743 
     93 H93       -70.0130   25.4263  -75.1340 H         1 UNK         0.0784 
     94 H94       -71.6733   25.4657  -74.5598 H         1 UNK         0.0784 
     95 H95       -71.1522   24.2077  -75.6798 H         1 UNK         0.0784 
     96 H96       -73.3590   25.3076  -76.3689 H         1 UNK         0.3213 
     97 H97       -75.2406   26.5019  -79.1483 H         1 UNK         0.0855 
     98 H98       -74.6883   23.6743  -78.1028 H         1 UNK         0.0814 
     99 H99       -74.7086   24.1926  -79.7774 H         1 UNK         0.0814 
    100 H100      -76.2019   24.1860  -78.8513 H         1 UNK         0.0814 
    101 H101      -76.0503   25.3884  -76.6493 H         1 UNK         0.3105 
    102 H102      -75.8244   28.4036  -74.7439 H         1 UNK         0.0547 
    103 H103      -78.1366   28.0048  -74.2581 H         1 UNK         0.0837 
    104 H104      -78.0352   28.5332  -75.9296 H         1 UNK         0.0837 
    105 H105      -78.2919   26.8290  -75.5651 H         1 UNK         0.0837 
    106 H106      -76.6369   25.6157  -74.3227 H         1 UNK         0.3020 
    107 H107      -73.5275   24.6490  -72.9733 H         1 UNK         0.1245 
    108 H108      -74.6167   25.7907  -70.9790 H         1 UNK         0.0781 
    109 H109      -74.5915   24.0641  -70.9375 H         1 UNK         0.0781 
    110 H110      -76.3636   26.2993  -69.3598 H         1 UNK         0.0836 
    111 H111      -78.0606   25.9299  -69.4723 H         1 UNK         0.0836 
    112 H112      -76.0284   23.3024  -73.1675 H         1 UNK         0.3022 
    113 H113      -75.7965   22.2801  -76.5418 H         1 UNK         0.0747 
    114 H114      -75.7931   19.9838  -75.6134 H         1 UNK         0.0793 
    115 H115      -74.1963   20.6950  -75.4580 H         1 UNK         0.0793 
    116 H116      -75.2413   20.5839  -74.0484 H         1 UNK         0.0793 
    117 H117      -77.5547   21.4368  -74.5007 H         1 UNK         0.3047 
    118 H118      -79.7415   22.0510  -74.7519 H         1 UNK         0.0822 
    119 H119      -78.8568   23.0481  -72.6288 H         1 UNK         0.0807 
    120 H120      -80.5319   23.5090  -72.8574 H         1 UNK         0.0807 
    121 H121      -79.2493   24.6667  -73.2020 H         1 UNK         0.0807 
    122 H122      -80.0008   24.6383  -76.0716 H         1 UNK         0.2946 
    123 H123      -82.0468   24.5683  -77.5375 H         1 UNK         0.1144 
    124 H124      -83.9979   23.0607  -77.1915 H         1 UNK         0.0793 
    125 H125      -84.5204   24.7152  -77.4571 H         1 UNK         0.0793 
    126 H126      -84.5374   24.0347  -75.8303 H         1 UNK         0.0793 
    127 H127      -83.3901   26.1720  -75.4884 H         1 UNK         0.2896 
@<TRIPOS>BOND
     1    1    2 1    
     2    1   67 1    
     3    1   68 1    
     4    1   69 1    
     5    2    3 2    
     6    2    4 am   BACKBONE|DICT|INTERRES
     7    4    5 1    
     8    4   70 1    
     9    5    6 1    
    10    5   65 1    
    11    5   71 1    
    12    6    7 1    
    13    6   72 1    
    14    6   73 1    
    15    7    8 1    
    16    8    9 1    
    17    8   74 1    
    18    8   75 1    
    19    9   10 ar   
    20    9   14 ar   
    21   10   11 ar   
    22   10   76 1    
    23   11   12 ar   
    24   11   48 1    
    25   12   13 ar   
    26   12   77 1    
    27   13   14 ar   
    28   13   15 1    
    29   14   78 1    
    30   15   16 1    
    31   15   79 1    
    32   15   80 1    
    33   16   17 1    
    34   17   18 1    
    35   17   81 1    
    36   17   82 1    
    37   18   19 1    
    38   18   22 1    
    39   18   83 1    
    40   19   20 am   BACKBONE|DICT|INTERRES
    41   19   21 2    
    42   20   84 1    
    43   20   85 1    
    44   22   23 am   BACKBONE|DICT|INTERRES
    45   22   86 1    
    46   23   24 2    
    47   23   25 1    
    48   25   26 1    
    49   25   27 1    
    50   25   87 1    
    51   26   88 1    
    52   26   89 1    
    53   26   90 1    
    54   27   28 am   BACKBONE|DICT|INTERRES
    55   27   91 1    
    56   28   29 2    
    57   28   30 1    
    58   30   31 1    
    59   30   32 1    
    60   30   92 1    
    61   31   93 1    
    62   31   94 1    
    63   31   95 1    
    64   32   33 am   BACKBONE|DICT|INTERRES
    65   32   96 1    
    66   33   34 2    
    67   33   35 1    
    68   35   36 1    
    69   35   37 1    
    70   35   97 1    
    71   36   98 1    
    72   36   99 1    
    73   36  100 1    
    74   37   38 am   BACKBONE|DICT|INTERRES
    75   37  101 1    
    76   38   39 2    
    77   38   40 1    
    78   40   41 1    
    79   40   42 1    
    80   40  102 1    
    81   41  103 1    
    82   41  104 1    
    83   41  105 1    
    84   42   43 am   BACKBONE|DICT|INTERRES
    85   42  106 1    
    86   43   44 2    
    87   43   45 1    
    88   45   46 1    
    89   45   49 1    
    90   45  107 1    
    91   46   47 1    
    92   46  108 1    
    93   46  109 1    
    94   47   48 1    
    95   48  110 1    
    96   48  111 1    
    97   49   50 am   BACKBONE|DICT|INTERRES
    98   49  112 1    
    99   50   51 2    
   100   50   52 1    
   101   52   53 1    
   102   52   54 1    
   103   52  113 1    
   104   53  114 1    
   105   53  115 1    
   106   53  116 1    
   107   54   55 am   BACKBONE|DICT|INTERRES
   108   54  117 1    
   109   55   56 2    
   110   55   57 1    
   111   57   58 1    
   112   57   59 1    
   113   57  118 1    
   114   58  119 1    
   115   58  120 1    
   116   58  121 1    
   117   59   60 am   BACKBONE|DICT|INTERRES
   118   59  122 1    
   119   60   61 2    
   120   60   62 1    
   121   62   63 1    
   122   62   64 1    
   123   62  123 1    
   124   63  124 1    
   125   63  125 1    
   126   63  126 1    
   127   64   65 am   BACKBONE|DICT|INTERRES
   128   64  127 1    
   129   65   66 2    
@<TRIPOS>SUBSTRUCTURE
     1 UNK         1 GROUP             0       ****    0 ROOT    
