@<TRIPOS>MOLECULE
3R135
127   129    1
SMALL
USER_CHARGES


@<TRIPOS>ATOM
      1 CA        -84.8157   26.6946  -75.6328 C.3       0 UNK        -0.1998 
      2 C         -84.1432   27.8626  -74.9272 C.2       0 UNK         0.4909 
      3 O         -84.2316   28.9968  -75.3974 O.2       0 UNK        -0.5240 
      4 N         -83.4659   27.5929  -73.8036 N.am      1 UNK        -0.4739 
      5 CA        -82.7267   28.5821  -73.0057 C.3       1 UNK         0.0864 
      6 C6        -82.4302   28.0486  -71.5818 C.3       11 UNK        -0.0881 
      7 S7        -81.4511   26.4997  -71.5525 S.3       11 UNK        -0.2682 
      8 C8        -80.4283   26.7459  -70.0668 C.3       11 UNK         0.0289 
      9 C9        -78.9918   27.1441  -70.3871 C.ar      11 UNK        -0.0687 
     10 C10       -77.9521   26.2444  -70.1259 C.ar      11 UNK        -0.0823 
     11 C11       -76.6200   26.6221  -70.3128 C.ar      11 UNK        -0.0830 
     12 C12       -76.3312   27.9082  -70.7725 C.ar      11 UNK        -0.1021 
     13 C13       -77.3562   28.8096  -71.0681 C.ar      11 UNK        -0.0753 
     14 C14       -78.6878   28.4231  -70.8723 C.ar      11 UNK        -0.0933 
     15 C15       -77.0053   30.2218  -71.5209 C.3       11 UNK         0.0166 
     16 S16       -77.0759   30.4665  -73.3273 S.3       11 UNK        -0.2615 
     17 C17       -75.9001   29.2452  -74.0143 C.3       11 UNK        -0.0865 
     18 CA        -74.4475   29.7867  -74.1346 C.3       10 UNK         0.0862 
     19 C         -73.5933   29.4286  -72.8898 C.2       10 UNK         0.5551 
     20 N         -72.9560   28.2639  -72.8653 N.am      10 UNK        -0.7319 
     21 O         -73.4963   30.2126  -71.9502 O.2       10 UNK        -0.5018 
     22 N         -73.7957   29.3455  -75.3785 N.am      10 UNK        -0.4509 
     23 C         -72.8866   30.0759  -76.0388 C.2       10 UNK         0.4899 
     24 O         -72.5960   31.2380  -75.7480 O.2       10 UNK        -0.4839 
     25 CA        -72.1816   29.3806  -77.2187 C.3       9 UNK         0.0222 
     26 CB        -71.1450   30.2810  -77.9244 C.3       9 UNK        -0.1966 
     27 N         -71.5807   28.0978  -76.8370 N.am      9 UNK        -0.4218 
     28 C         -70.6439   27.8715  -75.8991 C.2       9 UNK         0.5020 
     29 O         -70.1064   28.7623  -75.2400 O.2       9 UNK        -0.5274 
     30 CA        -70.2284   26.4081  -75.6413 C.3       8 UNK         0.0270 
     31 CB        -70.3173   26.0533  -74.1458 C.3       8 UNK        -0.1976 
     32 N         -71.0541   25.4606  -76.3913 N.am      8 UNK        -0.4313 
     33 C         -70.7003   24.8522  -77.5317 C.2       8 UNK         0.5041 
     34 O         -69.5857   24.9497  -78.0459 O.2       8 UNK        -0.5577 
     35 CA        -71.7837   24.0116  -78.2370 C.3       7 UNK         0.0284 
     36 CB        -71.6305   22.5255  -77.8746 C.3       7 UNK        -0.1958 
     37 N         -73.1521   24.4455  -77.9313 N.am      7 UNK        -0.4454 
     38 C         -73.6660   25.6427  -78.2484 C.2       7 UNK         0.5089 
     39 O         -73.0591   26.4952  -78.8948 O.2       7 UNK        -0.5125 
     40 CA        -75.0523   25.9826  -77.6787 C.3       6 UNK         0.0408 
     41 CB        -76.1523   25.6948  -78.7091 C.3       6 UNK        -0.1791 
     42 N         -75.3522   25.2893  -76.4214 N.am      6 UNK        -0.4762 
     43 C         -74.7152   25.4991  -75.2590 C.2       6 UNK         0.5007 
     44 O         -73.7875   26.3060  -75.1379 O.2       6 UNK        -0.5032 
     45 CA        -75.1839   24.6696  -74.0470 C.3       5 UNK         0.0783 
     46 C46       -74.7663   25.3137  -72.6977 C.3       11 UNK        -0.0857 
     47 S47       -75.2775   24.3572  -71.2287 S.3       11 UNK        -0.2512 
     48 C48       -75.4873   25.6613  -69.9761 C.3       11 UNK         0.0225 
     49 N         -76.6252   24.4068  -74.1458 N.am      5 UNK        -0.4615 
     50 C         -77.1954   23.2130  -73.9285 C.2       4 UNK         0.5053 
     51 O         -76.5638   22.1847  -73.6827 O.2       4 UNK        -0.5105 
     52 CA        -78.7315   23.1379  -73.9919 C.3       4 UNK         0.0263 
     53 CB        -79.3306   23.4331  -72.6069 C.3       4 UNK        -0.1981 
     54 N         -79.3328   24.0402  -74.9740 N.am      4 UNK        -0.4224 
     55 C         -79.1192   24.0032  -76.2967 C.2       3 UNK         0.4895 
     56 O         -78.4027   23.1727  -76.8560 O.2       3 UNK        -0.5091 
     57 CA        -79.8030   25.0929  -77.1427 C.3       3 UNK         0.0250 
     58 CB        -81.1516   24.5798  -77.6742 C.3       3 UNK        -0.1996 
     59 N         -80.0171   26.3789  -76.4649 N.am      3 UNK        -0.4254 
     60 C         -79.0994   27.1069  -75.8064 C.2       2 UNK         0.5004 
     61 O         -77.9381   26.7527  -75.6107 O.2       2 UNK        -0.5226 
     62 CA        -79.5836   28.4339  -75.2233 C.3       2 UNK         0.0269 
     63 CB        -79.5978   29.5429  -76.2913 C.3       2 UNK        -0.1926 
     64 N         -80.8941   28.2638  -74.6027 N.am      2 UNK        -0.4687 
     65 C         -81.4330   29.0769  -73.6873 C.2       1 UNK         0.5165 
     66 O         -80.9454   30.1561  -73.3493 O.2       1 UNK        -0.5079 
     67 H67       -85.8903   26.8635  -75.6958 H         1 UNK         0.0900 
     68 H68       -84.4269   26.5931  -76.6457 H         1 UNK         0.0900 
     69 H69       -84.6511   25.7523  -75.1104 H         1 UNK         0.0900 
     70 H70       -83.4341   26.6462  -73.4503 H         1 UNK         0.2959 
     71 H71       -83.3675   29.4607  -72.9002 H         1 UNK         0.1079 
     72 H72       -81.9275   28.8199  -70.9952 H         1 UNK         0.0837 
     73 H73       -83.3704   27.8582  -71.0618 H         1 UNK         0.0837 
     74 H74       -80.4411   25.8147  -69.4983 H         1 UNK         0.0685 
     75 H75       -80.8769   27.4928  -69.4106 H         1 UNK         0.0685 
     76 H76       -78.1744   25.2549  -69.7500 H         1 UNK         0.1434 
     77 H77       -75.3008   28.2118  -70.8929 H         1 UNK         0.1329 
     78 H78       -79.4833   29.1273  -71.0727 H         1 UNK         0.1335 
     79 H79       -77.6956   30.9268  -71.0555 H         1 UNK         0.0680 
     80 H80       -76.0151   30.5013  -71.1605 H         1 UNK         0.0680 
     81 H81       -76.2813   29.0025  -75.0076 H         1 UNK         0.1032 
     82 H82       -75.9553   28.3047  -73.4682 H         1 UNK         0.1032 
     83 H83       -74.5095   30.8765  -74.1660 H         1 UNK         0.0461 
     84 H84       -73.0391   27.6215  -73.6408 H         1 UNK         0.3453 
     85 H85       -72.3800   28.0357  -72.0716 H         1 UNK         0.3453 
     86 H86       -73.9169   28.3712  -75.6267 H         1 UNK         0.2984 
     87 H87       -72.9611   29.1497  -77.9461 H         1 UNK         0.0554 
     88 H88       -71.6109   31.1939  -78.2974 H         1 UNK         0.0847 
     89 H89       -70.6972   29.7744  -78.7793 H         1 UNK         0.0847 
     90 H90       -70.3400   30.5794  -77.2520 H         1 UNK         0.0847 
     91 H91       -71.9325   27.3015  -77.3557 H         1 UNK         0.3141 
     92 H92       -69.1836   26.3196  -75.9460 H         1 UNK         0.0743 
     93 H93       -69.7188   26.7350  -73.5398 H         1 UNK         0.0784 
     94 H94       -71.3418   26.1016  -73.7782 H         1 UNK         0.0784 
     95 H95       -69.9444   25.0463  -73.9581 H         1 UNK         0.0784 
     96 H96       -72.0015   25.3453  -76.0536 H         1 UNK         0.3213 
     97 H97       -71.6317   24.1213  -79.3131 H         1 UNK         0.0855 
     98 H98       -71.7900   22.3493  -76.8101 H         1 UNK         0.0814 
     99 H99       -70.6289   22.1670  -78.1170 H         1 UNK         0.0814 
    100 H100      -72.3359   21.9060  -78.4288 H         1 UNK         0.0814 
    101 H101      -73.7301   23.8062  -77.4052 H         1 UNK         0.3105 
    102 H102      -75.0605   27.0556  -77.4749 H         1 UNK         0.0547 
    103 H103      -77.0957   26.1383  -78.3954 H         1 UNK         0.0837 
    104 H104      -76.3076   24.6251  -78.8548 H         1 UNK         0.0837 
    105 H105      -75.9063   26.1272  -79.6801 H         1 UNK         0.0837 
    106 H106      -76.1239   24.6360  -76.4328 H         1 UNK         0.3020 
    107 H107      -74.6409   23.7259  -74.1334 H         1 UNK         0.1245 
    108 H108      -75.1777   26.3181  -72.6335 H         1 UNK         0.0781 
    109 H109      -73.6819   25.4246  -72.6468 H         1 UNK         0.0781 
    110 H110      -74.5445   26.1986  -69.8603 H         1 UNK         0.0836 
    111 H111      -75.6879   25.1926  -69.0117 H         1 UNK         0.0836 
    112 H112      -77.2035   25.1995  -74.4079 H         1 UNK         0.3022 
    113 H113      -79.0003   22.1176  -74.2736 H         1 UNK         0.0747 
    114 H114      -80.4131   23.3040  -72.6024 H         1 UNK         0.0793 
    115 H115      -78.9210   22.7600  -71.8523 H         1 UNK         0.0793 
    116 H116      -79.1122   24.4521  -72.2840 H         1 UNK         0.0793 
    117 H117      -79.9310   24.7666  -74.6109 H         1 UNK         0.3047 
    118 H118      -79.1588   25.2842  -78.0011 H         1 UNK         0.0822 
    119 H119      -81.5972   25.2839  -78.3773 H         1 UNK         0.0807 
    120 H120      -81.8665   24.4107  -76.8679 H         1 UNK         0.0807 
    121 H121      -81.0289   23.6338  -78.2040 H         1 UNK         0.0807 
    122 H122      -80.9258   26.7948  -76.6050 H         1 UNK         0.2946 
    123 H123      -78.8801   28.7019  -74.4363 H         1 UNK         0.1144 
    124 H124      -80.3406   29.3504  -77.0660 H         1 UNK         0.0793 
    125 H125      -78.6254   29.6255  -76.7790 H         1 UNK         0.0793 
    126 H126      -79.8171   30.5155  -75.8510 H         1 UNK         0.0793 
    127 H127      -81.3567   27.3802  -74.7564 H         1 UNK         0.2896 
@<TRIPOS>BOND
     1    1    2 1    
     2    1   67 1    
     3    1   68 1    
     4    1   69 1    
     5    2    3 2    
     6    2    4 am   BACKBONE|DICT|INTERRES
     7    4    5 1    
     8    4   70 1    
     9    5    6 1    
    10    5   65 1    
    11    5   71 1    
    12    6    7 1    
    13    6   72 1    
    14    6   73 1    
    15    7    8 1    
    16    8    9 1    
    17    8   74 1    
    18    8   75 1    
    19    9   10 ar   
    20    9   14 ar   
    21   10   11 ar   
    22   10   76 1    
    23   11   12 ar   
    24   11   48 1    
    25   12   13 ar   
    26   12   77 1    
    27   13   14 ar   
    28   13   15 1    
    29   14   78 1    
    30   15   16 1    
    31   15   79 1    
    32   15   80 1    
    33   16   17 1    
    34   17   18 1    
    35   17   81 1    
    36   17   82 1    
    37   18   19 1    
    38   18   22 1    
    39   18   83 1    
    40   19   20 am   BACKBONE|DICT|INTERRES
    41   19   21 2    
    42   20   84 1    
    43   20   85 1    
    44   22   23 am   BACKBONE|DICT|INTERRES
    45   22   86 1    
    46   23   24 2    
    47   23   25 1    
    48   25   26 1    
    49   25   27 1    
    50   25   87 1    
    51   26   88 1    
    52   26   89 1    
    53   26   90 1    
    54   27   28 am   BACKBONE|DICT|INTERRES
    55   27   91 1    
    56   28   29 2    
    57   28   30 1    
    58   30   31 1    
    59   30   32 1    
    60   30   92 1    
    61   31   93 1    
    62   31   94 1    
    63   31   95 1    
    64   32   33 am   BACKBONE|DICT|INTERRES
    65   32   96 1    
    66   33   34 2    
    67   33   35 1    
    68   35   36 1    
    69   35   37 1    
    70   35   97 1    
    71   36   98 1    
    72   36   99 1    
    73   36  100 1    
    74   37   38 am   BACKBONE|DICT|INTERRES
    75   37  101 1    
    76   38   39 2    
    77   38   40 1    
    78   40   41 1    
    79   40   42 1    
    80   40  102 1    
    81   41  103 1    
    82   41  104 1    
    83   41  105 1    
    84   42   43 am   BACKBONE|DICT|INTERRES
    85   42  106 1    
    86   43   44 2    
    87   43   45 1    
    88   45   46 1    
    89   45   49 1    
    90   45  107 1    
    91   46   47 1    
    92   46  108 1    
    93   46  109 1    
    94   47   48 1    
    95   48  110 1    
    96   48  111 1    
    97   49   50 am   BACKBONE|DICT|INTERRES
    98   49  112 1    
    99   50   51 2    
   100   50   52 1    
   101   52   53 1    
   102   52   54 1    
   103   52  113 1    
   104   53  114 1    
   105   53  115 1    
   106   53  116 1    
   107   54   55 am   BACKBONE|DICT|INTERRES
   108   54  117 1    
   109   55   56 2    
   110   55   57 1    
   111   57   58 1    
   112   57   59 1    
   113   57  118 1    
   114   58  119 1    
   115   58  120 1    
   116   58  121 1    
   117   59   60 am   BACKBONE|DICT|INTERRES
   118   59  122 1    
   119   60   61 2    
   120   60   62 1    
   121   62   63 1    
   122   62   64 1    
   123   62  123 1    
   124   63  124 1    
   125   63  125 1    
   126   63  126 1    
   127   64   65 am   BACKBONE|DICT|INTERRES
   128   64  127 1    
   129   65   66 2    
@<TRIPOS>SUBSTRUCTURE
     1 UNK         1 GROUP             0       ****    0 ROOT    
