@<TRIPOS>MOLECULE
3R135
127   129    1
SMALL
USER_CHARGES


@<TRIPOS>ATOM
      1 CA        -78.6930   25.9711  -70.0194 C.3       0 UNK        -0.1998 
      2 C         -80.1251   26.2725  -70.4224 C.2       0 UNK         0.4909 
      3 O         -81.0482   25.5865  -69.9812 O.2       0 UNK        -0.5240 
      4 N         -80.3204   27.2855  -71.2755 N.am      1 UNK        -0.4739 
      5 CA        -81.6305   27.7599  -71.7414 C.3       1 UNK         0.0864 
      6 C6        -81.6048   29.2651  -72.1163 C.3       11 UNK        -0.0881 
      7 S7        -81.0191   30.3078  -70.7325 S.3       11 UNK        -0.2682 
      8 C8        -79.5546   31.1335  -71.4381 C.3       11 UNK         0.0289 
      9 C9        -78.4721   30.1535  -71.8718 C.ar      11 UNK        -0.0687 
     10 C10       -78.2762   29.8879  -73.2299 C.ar      11 UNK        -0.0823 
     11 C11       -77.2819   28.9999  -73.6442 C.ar      11 UNK        -0.0830 
     12 C12       -76.4844   28.3667  -72.6886 C.ar      11 UNK        -0.1021 
     13 C13       -76.6371   28.6561  -71.3278 C.ar      11 UNK        -0.0753 
     14 C14       -77.6436   29.5416  -70.9249 C.ar      11 UNK        -0.0933 
     15 C15       -75.7021   28.0335  -70.2952 C.3       11 UNK         0.0166 
     16 S16       -73.9408   28.2189  -70.7310 S.3       11 UNK        -0.2615 
     17 C17       -73.6616   30.0162  -70.5238 C.3       11 UNK        -0.0865 
     18 CA        -74.0987   30.9020  -71.7351 C.3       10 UNK         0.0862 
     19 C         -73.7047   32.4039  -71.5853 C.2       10 UNK         0.5551 
     20 N         -73.7457   32.9571  -70.3798 N.am      10 UNK        -0.7319 
     21 O         -73.4075   33.0951  -72.5585 O.2       10 UNK        -0.5018 
     22 N         -73.7404   30.3263  -73.0421 N.am      10 UNK        -0.4509 
     23 C         -72.5052   30.1125  -73.5066 C.2       10 UNK         0.4899 
     24 O         -71.4701   30.3676  -72.8888 O.2       10 UNK        -0.4839 
     25 CA        -72.4306   29.4200  -74.8703 C.3       9 UNK         0.0222 
     26 CB        -71.1454   29.7646  -75.6488 C.3       9 UNK        -0.1966 
     27 N         -72.5117   27.9799  -74.6423 N.am      9 UNK        -0.4218 
     28 C         -72.9818   27.0909  -75.5211 C.2       9 UNK         0.5020 
     29 O         -73.4386   27.3895  -76.6290 O.2       9 UNK        -0.5274 
     30 CA        -72.9673   25.6175  -75.0834 C.3       8 UNK         0.0270 
     31 CB        -74.2875   25.2417  -74.3884 C.3       8 UNK        -0.1976 
     32 N         -72.7821   24.7661  -76.2568 N.am      8 UNK        -0.4313 
     33 C         -71.6033   24.5440  -76.8550 C.2       8 UNK         0.5041 
     34 O         -70.5138   24.8527  -76.3702 O.2       8 UNK        -0.5577 
     35 CA        -71.6622   23.9229  -78.2578 C.3       7 UNK         0.0284 
     36 CB        -72.0166   22.4276  -78.1912 C.3       7 UNK        -0.1958 
     37 N         -72.6539   24.6341  -79.0645 N.am      7 UNK        -0.4454 
     38 C         -72.4092   25.7488  -79.7697 C.2       7 UNK         0.5089 
     39 O         -71.2864   26.2147  -79.9635 O.2       7 UNK        -0.5125 
     40 CA        -73.6411   26.4875  -80.3105 C.3       6 UNK         0.0408 
     41 CB        -74.1830   25.7279  -81.5419 C.3       6 UNK        -0.1791 
     42 N         -74.5942   26.6044  -79.2004 N.am      6 UNK        -0.4762 
     43 C         -75.9325   26.6206  -79.1918 C.2       6 UNK         0.5007 
     44 O         -76.6522   26.6603  -80.1911 O.2       6 UNK        -0.5032 
     45 CA        -76.5768   26.5047  -77.7980 C.3       5 UNK         0.0783 
     46 C46       -77.6674   27.5737  -77.5604 C.3       11 UNK        -0.0857 
     47 S47       -78.2231   27.5811  -75.8221 S.3       11 UNK        -0.2512 
     48 C48       -77.0396   28.7694  -75.1260 C.3       11 UNK         0.0225 
     49 N         -77.0837   25.1498  -77.5818 N.am      5 UNK        -0.4615 
     50 C         -76.3556   24.0297  -77.5313 C.2       4 UNK         0.5053 
     51 O         -75.1285   24.0060  -77.6517 O.2       4 UNK        -0.5105 
     52 CA        -77.1308   22.7310  -77.2370 C.3       4 UNK         0.0263 
     53 CB        -76.2495   21.4776  -77.3937 C.3       4 UNK        -0.1981 
     54 N         -77.6955   22.7506  -75.8848 N.am      4 UNK        -0.4224 
     55 C         -78.7526   23.4760  -75.4948 C.2       3 UNK         0.4895 
     56 O         -79.4381   24.1512  -76.2680 O.2       3 UNK        -0.5091 
     57 CA        -79.0408   23.4796  -73.9829 C.3       3 UNK         0.0250 
     58 CB        -77.9145   24.2004  -73.2188 C.3       3 UNK        -0.1996 
     59 N         -80.3109   24.1277  -73.6518 N.am      3 UNK        -0.4254 
     60 C         -81.5315   23.6308  -73.8950 C.2       2 UNK         0.5004 
     61 O         -81.7256   22.5158  -74.3830 O.2       2 UNK        -0.5226 
     62 CA        -82.7374   24.5108  -73.5043 C.3       2 UNK         0.0269 
     63 CB        -83.8600   23.6777  -72.8585 C.3       2 UNK        -0.1926 
     64 N         -82.3550   25.5778  -72.5738 N.am      2 UNK        -0.4687 
     65 C         -82.1541   26.8638  -72.8859 C.2       1 UNK         0.5165 
     66 O         -82.3258   27.3251  -74.0151 O.2       1 UNK        -0.5079 
     67 H67       -78.3989   26.5955  -69.1762 H         1 UNK         0.0900 
     68 H68       -78.5876   24.9268  -69.7265 H         1 UNK         0.0900 
     69 H69       -78.0126   26.1586  -70.8480 H         1 UNK         0.0900 
     70 H70       -79.5280   27.8223  -71.6031 H         1 UNK         0.2959 
     71 H71       -82.3438   27.6540  -70.9204 H         1 UNK         0.1079 
     72 H72       -80.9916   29.4343  -73.0016 H         1 UNK         0.0837 
     73 H73       -82.6084   29.6020  -72.3825 H         1 UNK         0.0837 
     74 H74       -79.1438   31.8154  -70.6922 H         1 UNK         0.0685 
     75 H75       -79.8690   31.7572  -72.2765 H         1 UNK         0.0685 
     76 H76       -78.8942   30.3775  -73.9705 H         1 UNK         0.1434 
     77 H77       -75.7097   27.6834  -73.0053 H         1 UNK         0.1329 
     78 H78       -77.7786   29.7663  -69.8756 H         1 UNK         0.1335 
     79 H79       -75.9181   26.9685  -70.2160 H         1 UNK         0.0680 
     80 H80       -75.8713   28.4581  -69.3045 H         1 UNK         0.0680 
     81 H81       -72.5960   30.1549  -70.3328 H         1 UNK         0.1032 
     82 H82       -74.1717   30.3343  -69.6137 H         1 UNK         0.1032 
     83 H83       -75.1873   30.9250  -71.7436 H         1 UNK         0.0461 
     84 H84       -74.0147   32.4291  -69.5654 H         1 UNK         0.3453 
     85 H85       -73.5090   33.9325  -70.2850 H         1 UNK         0.3453 
     86 H86       -74.5250   30.0797  -73.6257 H         1 UNK         0.2984 
     87 H87       -73.2884   29.7475  -75.4624 H         1 UNK         0.0554 
     88 H88       -71.0463   30.8430  -75.7786 H         1 UNK         0.0847 
     89 H89       -71.1530   29.3175  -76.6430 H         1 UNK         0.0847 
     90 H90       -70.2518   29.4130  -75.1317 H         1 UNK         0.0847 
     91 H91       -72.1931   27.6644  -73.7351 H         1 UNK         0.3141 
     92 H92       -72.1416   25.4520  -74.3879 H         1 UNK         0.0743 
     93 H93       -74.3963   25.7790  -73.4460 H         1 UNK         0.0784 
     94 H94       -75.1571   25.4773  -75.0027 H         1 UNK         0.0784 
     95 H95       -74.3229   24.1773  -74.1557 H         1 UNK         0.0784 
     96 H96       -73.6293   24.4853  -76.7468 H         1 UNK         0.3213 
     97 H97       -70.6765   24.0202  -78.7185 H         1 UNK         0.0855 
     98 H98       -72.9957   22.2570  -77.7422 H         1 UNK         0.0814 
     99 H99       -71.2847   21.8815  -77.5947 H         1 UNK         0.0814 
    100 H100      -72.0237   21.9798  -79.1850 H         1 UNK         0.0814 
    101 H101      -73.6227   24.3660  -78.9196 H         1 UNK         0.3105 
    102 H102      -73.3414   27.4934  -80.6089 H         1 UNK         0.0547 
    103 H103      -74.6306   24.7717  -81.2687 H         1 UNK         0.0837 
    104 H104      -74.9319   26.3122  -82.0757 H         1 UNK         0.0837 
    105 H105      -73.3850   25.5213  -82.2566 H         1 UNK         0.0837 
    106 H106      -74.1350   26.6642  -78.2922 H         1 UNK         0.3020 
    107 H107      -75.7997   26.6681  -77.0527 H         1 UNK         0.1245 
    108 H108      -78.5326   27.3891  -78.1999 H         1 UNK         0.0781 
    109 H109      -77.3032   28.5687  -77.8236 H         1 UNK         0.0781 
    110 H110      -77.1202   29.7179  -75.6595 H         1 UNK         0.0836 
    111 H111      -76.0232   28.4091  -75.2923 H         1 UNK         0.0836 
    112 H112      -78.0774   25.0700  -77.3895 H         1 UNK         0.3022 
    113 H113      -77.9458   22.6619  -77.9607 H         1 UNK         0.0747 
    114 H114      -75.4220   21.4716  -76.6828 H         1 UNK         0.0793 
    115 H115      -76.8271   20.5652  -77.2445 H         1 UNK         0.0793 
    116 H116      -75.8185   21.4267  -78.3946 H         1 UNK         0.0793 
    117 H117      -77.1766   22.2429  -75.1828 H         1 UNK         0.3047 
    118 H118      -79.0879   22.4411  -73.6480 H         1 UNK         0.0822 
    119 H119      -78.0636   24.1208  -72.1431 H         1 UNK         0.0807 
    120 H120      -77.8602   25.2589  -73.4790 H         1 UNK         0.0807 
    121 H121      -76.9379   23.7643  -73.4308 H         1 UNK         0.0807 
    122 H122      -80.2566   25.0676  -73.2905 H         1 UNK         0.2946 
    123 H123      -83.1232   24.9425  -74.4307 H         1 UNK         0.1144 
    124 H124      -84.7139   24.3018  -72.5941 H         1 UNK         0.0793 
    125 H125      -83.5181   23.1755  -71.9527 H         1 UNK         0.0793 
    126 H126      -84.2245   22.9093  -73.5416 H         1 UNK         0.0793 
    127 H127      -82.1271   25.2928  -71.6246 H         1 UNK         0.2896 
@<TRIPOS>BOND
     1    1    2 1    
     2    1   67 1    
     3    1   68 1    
     4    1   69 1    
     5    2    3 2    
     6    2    4 am   BACKBONE|DICT|INTERRES
     7    4    5 1    
     8    4   70 1    
     9    5    6 1    
    10    5   65 1    
    11    5   71 1    
    12    6    7 1    
    13    6   72 1    
    14    6   73 1    
    15    7    8 1    
    16    8    9 1    
    17    8   74 1    
    18    8   75 1    
    19    9   10 ar   
    20    9   14 ar   
    21   10   11 ar   
    22   10   76 1    
    23   11   12 ar   
    24   11   48 1    
    25   12   13 ar   
    26   12   77 1    
    27   13   14 ar   
    28   13   15 1    
    29   14   78 1    
    30   15   16 1    
    31   15   79 1    
    32   15   80 1    
    33   16   17 1    
    34   17   18 1    
    35   17   81 1    
    36   17   82 1    
    37   18   19 1    
    38   18   22 1    
    39   18   83 1    
    40   19   20 am   BACKBONE|DICT|INTERRES
    41   19   21 2    
    42   20   84 1    
    43   20   85 1    
    44   22   23 am   BACKBONE|DICT|INTERRES
    45   22   86 1    
    46   23   24 2    
    47   23   25 1    
    48   25   26 1    
    49   25   27 1    
    50   25   87 1    
    51   26   88 1    
    52   26   89 1    
    53   26   90 1    
    54   27   28 am   BACKBONE|DICT|INTERRES
    55   27   91 1    
    56   28   29 2    
    57   28   30 1    
    58   30   31 1    
    59   30   32 1    
    60   30   92 1    
    61   31   93 1    
    62   31   94 1    
    63   31   95 1    
    64   32   33 am   BACKBONE|DICT|INTERRES
    65   32   96 1    
    66   33   34 2    
    67   33   35 1    
    68   35   36 1    
    69   35   37 1    
    70   35   97 1    
    71   36   98 1    
    72   36   99 1    
    73   36  100 1    
    74   37   38 am   BACKBONE|DICT|INTERRES
    75   37  101 1    
    76   38   39 2    
    77   38   40 1    
    78   40   41 1    
    79   40   42 1    
    80   40  102 1    
    81   41  103 1    
    82   41  104 1    
    83   41  105 1    
    84   42   43 am   BACKBONE|DICT|INTERRES
    85   42  106 1    
    86   43   44 2    
    87   43   45 1    
    88   45   46 1    
    89   45   49 1    
    90   45  107 1    
    91   46   47 1    
    92   46  108 1    
    93   46  109 1    
    94   47   48 1    
    95   48  110 1    
    96   48  111 1    
    97   49   50 am   BACKBONE|DICT|INTERRES
    98   49  112 1    
    99   50   51 2    
   100   50   52 1    
   101   52   53 1    
   102   52   54 1    
   103   52  113 1    
   104   53  114 1    
   105   53  115 1    
   106   53  116 1    
   107   54   55 am   BACKBONE|DICT|INTERRES
   108   54  117 1    
   109   55   56 2    
   110   55   57 1    
   111   57   58 1    
   112   57   59 1    
   113   57  118 1    
   114   58  119 1    
   115   58  120 1    
   116   58  121 1    
   117   59   60 am   BACKBONE|DICT|INTERRES
   118   59  122 1    
   119   60   61 2    
   120   60   62 1    
   121   62   63 1    
   122   62   64 1    
   123   62  123 1    
   124   63  124 1    
   125   63  125 1    
   126   63  126 1    
   127   64   65 am   BACKBONE|DICT|INTERRES
   128   64  127 1    
   129   65   66 2    
@<TRIPOS>SUBSTRUCTURE
     1 UNK         1 GROUP             0       ****    0 ROOT    
