@<TRIPOS>MOLECULE
3R135
127   129    1
SMALL
USER_CHARGES


@<TRIPOS>ATOM
      1 CA        -83.8164   24.1350  -72.9701 C.3       0 UNK        -0.1998 
      2 C         -83.3844   25.5874  -73.1068 C.2       0 UNK         0.4909 
      3 O         -84.0542   26.3646  -73.7875 O.2       0 UNK        -0.5240 
      4 N         -82.2744   25.9614  -72.4581 N.am      1 UNK        -0.4739 
      5 CA        -81.6729   27.2929  -72.5382 C.3       1 UNK         0.0864 
      6 C6        -80.7036   27.5386  -71.3542 C.3       11 UNK        -0.0881 
      7 S7        -80.3068   29.3052  -71.1424 S.3       11 UNK        -0.2682 
      8 C8        -79.2566   29.2521  -69.6584 C.3       11 UNK         0.0289 
      9 C9        -77.8091   28.9142  -69.9886 C.ar      11 UNK        -0.0687 
     10 C10       -77.3402   27.6021  -69.8784 C.ar      11 UNK        -0.0823 
     11 C11       -75.9958   27.3045  -70.1252 C.ar      11 UNK        -0.0830 
     12 C12       -75.1172   28.3334  -70.4860 C.ar      11 UNK        -0.1021 
     13 C13       -75.5742   29.6511  -70.5976 C.ar      11 UNK        -0.0753 
     14 C14       -76.9228   29.9310  -70.3544 C.ar      11 UNK        -0.0933 
     15 C15       -74.6106   30.7900  -70.9217 C.3       11 UNK         0.0166 
     16 S16       -73.8788   30.6909  -72.5893 S.3       11 UNK        -0.2615 
     17 C17       -75.3511   30.5123  -73.6526 C.3       11 UNK        -0.0865 
     18 CA        -75.3851   29.0906  -74.2801 C.3       10 UNK         0.0862 
     19 C         -76.8109   28.6133  -74.6486 C.2       10 UNK         0.5551 
     20 N         -77.6183   28.3366  -73.6366 N.am      10 UNK        -0.7319 
     21 O         -77.1844   28.4521  -75.8091 O.2       10 UNK        -0.5018 
     22 N         -74.3903   28.8640  -75.3355 N.am      10 UNK        -0.4509 
     23 C         -74.1720   29.5749  -76.4496 C.2       10 UNK         0.4899 
     24 O         -74.8185   30.5718  -76.7741 O.2       10 UNK        -0.4839 
     25 CA        -73.0309   29.0803  -77.3679 C.3       9 UNK         0.0222 
     26 CB        -72.3190   30.2325  -78.1078 C.3       9 UNK        -0.1966 
     27 N         -72.0647   28.2063  -76.6846 N.am      9 UNK        -0.4218 
     28 C         -71.2587   28.5152  -75.6533 C.2       9 UNK         0.5020 
     29 O         -71.0917   29.6613  -75.2356 O.2       9 UNK        -0.5274 
     30 CA        -70.5572   27.3524  -74.9233 C.3       8 UNK         0.0270 
     31 CB        -70.9273   27.3589  -73.4280 C.3       8 UNK        -0.1976 
     32 N         -70.9289   26.0493  -75.4797 N.am      8 UNK        -0.4313 
     33 C         -70.1624   25.3047  -76.2880 C.2       8 UNK         0.5041 
     34 O         -69.0056   25.5942  -76.5957 O.2       8 UNK        -0.5577 
     35 CA        -70.7981   24.0289  -76.8775 C.3       7 UNK         0.0284 
     36 CB        -70.4297   22.8040  -76.0249 C.3       7 UNK        -0.1958 
     37 N         -72.2578   24.1000  -77.0156 N.am      7 UNK        -0.4454 
     38 C         -72.9161   24.9849  -77.7777 C.2       7 UNK         0.5089 
     39 O         -72.3585   25.8168  -78.4921 O.2       7 UNK        -0.5125 
     40 CA        -74.4514   25.0007  -77.6776 C.3       6 UNK         0.0408 
     41 CB        -75.0596   24.1548  -78.8066 C.3       6 UNK        -0.1791 
     42 N         -74.9957   24.5666  -76.3830 N.am      6 UNK        -0.4762 
     43 C         -74.7009   25.0976  -75.1842 C.2       6 UNK         0.5007 
     44 O         -73.8575   25.9855  -75.0303 O.2       6 UNK        -0.5032 
     45 CA        -75.4903   24.5565  -73.9732 C.3       5 UNK         0.0783 
     46 C46       -75.2719   25.4143  -72.7020 C.3       11 UNK        -0.0857 
     47 S47       -76.1146   24.7487  -71.2334 S.3       11 UNK        -0.2512 
     48 C48       -75.4873   25.8784  -69.9496 C.3       11 UNK         0.0225 
     49 N         -76.9071   24.4698  -74.3358 N.am      5 UNK        -0.4615 
     50 C         -77.5905   23.3394  -74.5539 C.2       4 UNK         0.5053 
     51 O         -77.1112   22.2116  -74.4403 O.2       4 UNK        -0.5105 
     52 CA        -79.0439   23.5027  -75.0281 C.3       4 UNK         0.0263 
     53 CB        -79.9970   23.6060  -73.8280 C.3       4 UNK        -0.1981 
     54 N         -79.1866   24.6785  -75.8955 N.am      4 UNK        -0.4224 
     55 C         -78.8018   24.6923  -77.1818 C.2       3 UNK         0.4895 
     56 O         -78.4390   23.6776  -77.7784 O.2       3 UNK        -0.5091 
     57 CA        -78.7390   26.0426  -77.9246 C.3       3 UNK         0.0250 
     58 CB        -79.2691   25.9475  -79.3714 C.3       3 UNK        -0.1996 
     59 N         -79.3297   27.1729  -77.2009 N.am      3 UNK        -0.4254 
     60 C         -80.6251   27.4053  -76.9481 C.2       2 UNK         0.5004 
     61 O         -81.5539   26.6884  -77.3252 O.2       2 UNK        -0.5226 
     62 CA        -80.9262   28.6451  -76.0852 C.3       2 UNK         0.0269 
     63 CB        -81.8697   29.6123  -76.8199 C.3       2 UNK        -0.1926 
     64 N         -81.5041   28.3026  -74.7809 N.am      2 UNK        -0.4687 
     65 C         -80.9610   27.4579  -73.8939 C.2       1 UNK         0.5165 
     66 O         -79.9187   26.8319  -74.0998 O.2       1 UNK        -0.5079 
     67 H67       -84.8172   24.0797  -72.5428 H         1 UNK         0.0900 
     68 H68       -83.1423   23.5669  -72.3292 H         1 UNK         0.0900 
     69 H69       -83.8365   23.6568  -73.9491 H         1 UNK         0.0900 
     70 H70       -81.7553   25.2776  -71.9267 H         1 UNK         0.2959 
     71 H71       -82.4794   28.0271  -72.4714 H         1 UNK         0.1079 
     72 H72       -79.7813   26.9639  -71.4628 H         1 UNK         0.0837 
     73 H73       -81.1645   27.1968  -70.4259 H         1 UNK         0.0837 
     74 H74       -79.2982   30.2270  -69.1703 H         1 UNK         0.0685 
     75 H75       -79.6642   28.5403  -68.9390 H         1 UNK         0.0685 
     76 H76       -78.0168   26.8113  -69.5843 H         1 UNK         0.1434 
     77 H77       -74.0726   28.1164  -70.6640 H         1 UNK         0.1329 
     78 H78       -77.2831   30.9484  -70.4255 H         1 UNK         0.1335 
     79 H79       -73.8040   30.7896  -70.1874 H         1 UNK         0.0680 
     80 H80       -75.1088   31.7557  -70.8216 H         1 UNK         0.0680 
     81 H81       -75.3432   31.2927  -74.4127 H         1 UNK         0.1032 
     82 H82       -76.2449   30.7074  -73.0588 H         1 UNK         0.1032 
     83 H83       -75.0624   28.4030  -73.5008 H         1 UNK         0.0461 
     84 H84       -77.3254   28.4663  -72.6801 H         1 UNK         0.3453 
     85 H85       -78.5306   27.9354  -73.8288 H         1 UNK         0.3453 
     86 H86       -73.8593   28.0088  -75.2201 H         1 UNK         0.2984 
     87 H87       -73.5095   28.4555  -78.1231 H         1 UNK         0.0554 
     88 H88       -71.5197   29.8596  -78.7480 H         1 UNK         0.0847 
     89 H89       -71.8864   30.9543  -77.4146 H         1 UNK         0.0847 
     90 H90       -73.0159   30.7767  -78.7463 H         1 UNK         0.0847 
     91 H91       -72.0718   27.2442  -77.0033 H         1 UNK         0.3141 
     92 H92       -69.4810   27.5137  -75.0123 H         1 UNK         0.0743 
     93 H93       -72.0026   27.2518  -73.2772 H         1 UNK         0.0784 
     94 H94       -70.4310   26.5492  -72.8930 H         1 UNK         0.0784 
     95 H95       -70.6248   28.2926  -72.9516 H         1 UNK         0.0784 
     96 H96       -71.8807   25.7480  -75.2919 H         1 UNK         0.3213 
     97 H97       -70.3792   23.8906  -77.8767 H         1 UNK         0.0855 
     98 H98       -70.8426   22.8730  -75.0176 H         1 UNK         0.0814 
     99 H99       -69.3472   22.7091  -75.9267 H         1 UNK         0.0814 
    100 H100      -70.7932   21.8807  -76.4763 H         1 UNK         0.0814 
    101 H101      -72.8024   23.4540  -76.4628 H         1 UNK         0.3105 
    102 H102      -74.7681   26.0356  -77.8237 H         1 UNK         0.0547 
    103 H103      -74.8666   23.0908  -78.6654 H         1 UNK         0.0837 
    104 H104      -76.1367   24.2958  -78.8755 H         1 UNK         0.0837 
    105 H105      -74.6432   24.4354  -79.7754 H         1 UNK         0.0837 
    106 H106      -75.6972   23.8397  -76.4156 H         1 UNK         0.3020 
    107 H107      -75.0905   23.5603  -73.7709 H         1 UNK         0.1245 
    108 H108      -74.2084   25.5055  -72.4722 H         1 UNK         0.0781 
    109 H109      -75.6482   26.4213  -72.8596 H         1 UNK         0.0781 
    110 H110      -75.8010   25.5069  -68.9730 H         1 UNK         0.0836 
    111 H111      -74.3965   25.8508  -69.9467 H         1 UNK         0.0836 
    112 H112      -77.3872   25.3502  -74.4559 H         1 UNK         0.3022 
    113 H113      -79.3182   22.6106  -75.5956 H         1 UNK         0.0747 
    114 H114      -81.0226   23.7756  -74.1542 H         1 UNK         0.0793 
    115 H115      -79.9876   22.6830  -73.2469 H         1 UNK         0.0793 
    116 H116      -79.7148   24.4139  -73.1526 H         1 UNK         0.0793 
    117 H117      -79.4820   25.5430  -75.4487 H         1 UNK         0.3047 
    118 H118      -77.6758   26.2793  -77.9899 H         1 UNK         0.0822 
    119 H119      -79.1941   26.9054  -79.8859 H         1 UNK         0.0807 
    120 H120      -80.3110   25.6283  -79.4031 H         1 UNK         0.0807 
    121 H121      -78.6941   25.2249  -79.9517 H         1 UNK         0.0807 
    122 H122      -78.6415   27.7922  -76.7741 H         1 UNK         0.2946 
    123 H123      -79.9889   29.1729  -75.8940 H         1 UNK         0.1144 
    124 H124      -82.0155   30.5329  -76.2545 H         1 UNK         0.0793 
    125 H125      -82.8494   29.1653  -76.9942 H         1 UNK         0.0793 
    126 H126      -81.4614   29.8916  -77.7921 H         1 UNK         0.0793 
    127 H127      -82.3866   28.7377  -74.5538 H         1 UNK         0.2896 
@<TRIPOS>BOND
     1    1    2 1    
     2    1   67 1    
     3    1   68 1    
     4    1   69 1    
     5    2    3 2    
     6    2    4 am   BACKBONE|DICT|INTERRES
     7    4    5 1    
     8    4   70 1    
     9    5    6 1    
    10    5   65 1    
    11    5   71 1    
    12    6    7 1    
    13    6   72 1    
    14    6   73 1    
    15    7    8 1    
    16    8    9 1    
    17    8   74 1    
    18    8   75 1    
    19    9   10 ar   
    20    9   14 ar   
    21   10   11 ar   
    22   10   76 1    
    23   11   12 ar   
    24   11   48 1    
    25   12   13 ar   
    26   12   77 1    
    27   13   14 ar   
    28   13   15 1    
    29   14   78 1    
    30   15   16 1    
    31   15   79 1    
    32   15   80 1    
    33   16   17 1    
    34   17   18 1    
    35   17   81 1    
    36   17   82 1    
    37   18   19 1    
    38   18   22 1    
    39   18   83 1    
    40   19   20 am   BACKBONE|DICT|INTERRES
    41   19   21 2    
    42   20   84 1    
    43   20   85 1    
    44   22   23 am   BACKBONE|DICT|INTERRES
    45   22   86 1    
    46   23   24 2    
    47   23   25 1    
    48   25   26 1    
    49   25   27 1    
    50   25   87 1    
    51   26   88 1    
    52   26   89 1    
    53   26   90 1    
    54   27   28 am   BACKBONE|DICT|INTERRES
    55   27   91 1    
    56   28   29 2    
    57   28   30 1    
    58   30   31 1    
    59   30   32 1    
    60   30   92 1    
    61   31   93 1    
    62   31   94 1    
    63   31   95 1    
    64   32   33 am   BACKBONE|DICT|INTERRES
    65   32   96 1    
    66   33   34 2    
    67   33   35 1    
    68   35   36 1    
    69   35   37 1    
    70   35   97 1    
    71   36   98 1    
    72   36   99 1    
    73   36  100 1    
    74   37   38 am   BACKBONE|DICT|INTERRES
    75   37  101 1    
    76   38   39 2    
    77   38   40 1    
    78   40   41 1    
    79   40   42 1    
    80   40  102 1    
    81   41  103 1    
    82   41  104 1    
    83   41  105 1    
    84   42   43 am   BACKBONE|DICT|INTERRES
    85   42  106 1    
    86   43   44 2    
    87   43   45 1    
    88   45   46 1    
    89   45   49 1    
    90   45  107 1    
    91   46   47 1    
    92   46  108 1    
    93   46  109 1    
    94   47   48 1    
    95   48  110 1    
    96   48  111 1    
    97   49   50 am   BACKBONE|DICT|INTERRES
    98   49  112 1    
    99   50   51 2    
   100   50   52 1    
   101   52   53 1    
   102   52   54 1    
   103   52  113 1    
   104   53  114 1    
   105   53  115 1    
   106   53  116 1    
   107   54   55 am   BACKBONE|DICT|INTERRES
   108   54  117 1    
   109   55   56 2    
   110   55   57 1    
   111   57   58 1    
   112   57   59 1    
   113   57  118 1    
   114   58  119 1    
   115   58  120 1    
   116   58  121 1    
   117   59   60 am   BACKBONE|DICT|INTERRES
   118   59  122 1    
   119   60   61 2    
   120   60   62 1    
   121   62   63 1    
   122   62   64 1    
   123   62  123 1    
   124   63  124 1    
   125   63  125 1    
   126   63  126 1    
   127   64   65 am   BACKBONE|DICT|INTERRES
   128   64  127 1    
   129   65   66 2    
@<TRIPOS>SUBSTRUCTURE
     1 UNK         1 GROUP             0       ****    0 ROOT    
