@<TRIPOS>MOLECULE
3R135
127   129    1
SMALL
USER_CHARGES


@<TRIPOS>ATOM
      1 CA        -80.0072   29.8353  -79.1543 C.3       0 UNK        -0.1998 
      2 C         -79.7294   28.9405  -77.9571 C.2       0 UNK         0.4909 
      3 O         -78.6345   28.3892  -77.8403 O.2       0 UNK        -0.5240 
      4 N         -80.7046   28.7884  -77.0539 N.am      1 UNK        -0.4739 
      5 CA        -80.6156   27.9137  -75.8829 C.3       1 UNK         0.0864 
      6 C6        -81.3738   28.5145  -74.6703 C.3       11 UNK        -0.0881 
      7 S7        -80.5828   28.0240  -73.1068 S.3       11 UNK        -0.2682 
      8 C8        -79.2856   29.3091  -72.9733 C.3       11 UNK         0.0289 
      9 C9        -78.0982   28.9634  -72.0722 C.ar      11 UNK        -0.0687 
     10 C10       -78.0517   27.8032  -71.2877 C.ar      11 UNK        -0.0823 
     11 C11       -76.9350   27.5124  -70.5004 C.ar      11 UNK        -0.0830 
     12 C12       -75.8635   28.4065  -70.4738 C.ar      11 UNK        -0.1021 
     13 C13       -75.8883   29.5683  -71.2502 C.ar      11 UNK        -0.0753 
     14 C14       -77.0082   29.8412  -72.0418 C.ar      11 UNK        -0.0933 
     15 C15       -74.7015   30.5241  -71.2290 C.3       11 UNK         0.0166 
     16 S16       -73.5164   30.1878  -72.5731 S.3       11 UNK        -0.2615 
     17 C17       -73.0781   28.4472  -72.2268 C.3       11 UNK        -0.0865 
     18 CA        -71.8212   27.9345  -72.9750 C.3       10 UNK         0.0862 
     19 C         -71.5459   26.4501  -72.5918 C.2       10 UNK         0.5551 
     20 N         -71.6613   25.4930  -73.5053 N.am      10 UNK        -0.7319 
     21 O         -71.2253   26.1646  -71.4410 O.2       10 UNK        -0.5018 
     22 N         -71.9041   28.1971  -74.4199 N.am      10 UNK        -0.4509 
     23 C         -70.8726   28.1470  -75.2732 C.2       10 UNK         0.4899 
     24 O         -69.7240   27.8411  -74.9520 O.2       10 UNK        -0.4839 
     25 CA        -71.1699   28.5283  -76.7326 C.3       9 UNK         0.0222 
     26 CB        -71.8684   27.3720  -77.4665 C.3       9 UNK        -0.1966 
     27 N         -71.9899   29.7360  -76.8311 N.am      9 UNK        -0.4218 
     28 C         -71.6185   30.9672  -76.4571 C.2       9 UNK         0.5020 
     29 O         -70.4820   31.2511  -76.0760 O.2       9 UNK        -0.5274 
     30 CA        -72.6896   32.0757  -76.4904 C.3       8 UNK         0.0270 
     31 CB        -72.7346   32.7688  -77.8668 C.3       8 UNK        -0.1976 
     32 N         -74.0269   31.6450  -76.0502 N.am      8 UNK        -0.4313 
     33 C         -74.8605   30.7758  -76.6370 C.2       8 UNK         0.5041 
     34 O         -74.6354   30.2227  -77.7167 O.2       8 UNK        -0.5577 
     35 CA        -76.1501   30.4510  -75.8689 C.3       7 UNK         0.0284 
     36 CB        -77.3037   31.3502  -76.3404 C.3       7 UNK        -0.1958 
     37 N         -76.5390   29.0480  -76.0178 N.am      7 UNK        -0.4454 
     38 C         -75.8237   28.0054  -75.5806 C.2       7 UNK         0.5089 
     39 O         -74.7166   28.0929  -75.0439 O.2       7 UNK        -0.5125 
     40 CA        -76.4488   26.6248  -75.7873 C.3       6 UNK         0.0408 
     41 CB        -76.1190   26.0648  -77.1808 C.3       6 UNK        -0.1791 
     42 N         -75.9328   25.7205  -74.7639 N.am      6 UNK        -0.4762 
     43 C         -76.6575   24.8083  -74.1110 C.2       6 UNK         0.5007 
     44 O         -77.8629   24.6257  -74.3159 O.2       6 UNK        -0.5032 
     45 CA        -75.9045   23.9402  -73.0813 C.3       5 UNK         0.0783 
     46 C46       -75.6972   24.6588  -71.7186 C.3       11 UNK        -0.0857 
     47 S47       -77.1971   24.7427  -70.6702 S.3       11 UNK        -0.2512 
     48 C48       -76.8902   26.2358  -69.6715 C.3       11 UNK         0.0225 
     49 N         -76.6531   22.6983  -72.9313 N.am      5 UNK        -0.4615 
     50 C         -76.2302   21.4534  -73.1628 C.2       4 UNK         0.5053 
     51 O         -75.0624   21.1551  -73.4130 O.2       4 UNK        -0.5105 
     52 CA        -77.3146   20.3553  -73.1271 C.3       4 UNK         0.0263 
     53 CB        -77.3034   19.6316  -71.7710 C.3       4 UNK        -0.1981 
     54 N         -78.6605   20.8908  -73.3802 N.am      4 UNK        -0.4224 
     55 C         -79.0624   21.3825  -74.5619 C.2       3 UNK         0.4895 
     56 O         -78.4146   21.2444  -75.6029 O.2       3 UNK        -0.5091 
     57 CA        -80.3719   22.1939  -74.5825 C.3       3 UNK         0.0250 
     58 CB        -80.7530   22.7928  -73.2118 C.3       3 UNK        -0.1996 
     59 N         -80.2172   23.2896  -75.5400 N.am      3 UNK        -0.4254 
     60 C         -80.8133   23.3537  -76.7363 C.2       2 UNK         0.5004 
     61 O         -81.6656   22.5481  -77.1182 O.2       2 UNK        -0.5226 
     62 CA        -80.3676   24.4985  -77.6706 C.3       2 UNK         0.0269 
     63 CB        -81.3012   24.6747  -78.8878 C.3       2 UNK        -0.1926 
     64 N         -80.1666   25.7921  -77.0034 N.am      2 UNK        -0.4687 
     65 C         -81.0589   26.4908  -76.2838 C.2       1 UNK         0.5165 
     66 O         -82.1936   26.0937  -76.0136 O.2       1 UNK        -0.5079 
     67 H67       -81.0000   30.2823  -79.1075 H         1 UNK         0.0900 
     68 H68       -79.9366   29.2579  -80.0757 H         1 UNK         0.0900 
     69 H69       -79.2741   30.6399  -79.1997 H         1 UNK         0.0900 
     70 H70       -81.6000   29.2319  -77.2057 H         1 UNK         0.2959 
     71 H71       -79.5648   27.8422  -75.5979 H         1 UNK         0.1079 
     72 H72       -81.3676   29.6051  -74.7149 H         1 UNK         0.0837 
     73 H73       -82.4279   28.2323  -74.6539 H         1 UNK         0.0837 
     74 H74       -79.7461   30.2313  -72.6162 H         1 UNK         0.0685 
     75 H75       -78.8982   29.5211  -73.9706 H         1 UNK         0.0685 
     76 H76       -78.8733   27.1022  -71.2869 H         1 UNK         0.1434 
     77 H77       -75.0017   28.1928  -69.8568 H         1 UNK         0.1329 
     78 H78       -77.0288   30.7410  -72.6406 H         1 UNK         0.1335 
     79 H79       -75.0540   31.5526  -71.3192 H         1 UNK         0.0680 
     80 H80       -74.1835   30.4643  -70.2706 H         1 UNK         0.0680 
     81 H81       -72.9336   28.3418  -71.1501 H         1 UNK         0.1032 
     82 H82       -73.9401   27.8290  -72.4839 H         1 UNK         0.1032 
     83 H83       -70.9682   28.5049  -72.6025 H         1 UNK         0.0461 
     84 H84       -71.8933   25.7262  -74.4565 H         1 UNK         0.3453 
     85 H85       -71.4690   24.5382  -73.2476 H         1 UNK         0.3453 
     86 H86       -72.8355   28.4110  -74.7668 H         1 UNK         0.2984 
     87 H87       -70.2188   28.7264  -77.2310 H         1 UNK         0.0554 
     88 H88       -72.0156   27.6040  -78.5214 H         1 UNK         0.0847 
     89 H89       -72.8450   27.1501  -77.0348 H         1 UNK         0.0847 
     90 H90       -71.2723   26.4598  -77.4160 H         1 UNK         0.0847 
     91 H91       -72.9460   29.6305  -77.1653 H         1 UNK         0.3141 
     92 H92       -72.3757   32.8252  -75.7619 H         1 UNK         0.0743 
     93 H93       -71.7587   33.1833  -78.1233 H         1 UNK         0.0784 
     94 H94       -73.0106   32.0793  -78.6650 H         1 UNK         0.0784 
     95 H95       -73.4484   33.5925  -77.8730 H         1 UNK         0.0784 
     96 H96       -74.2993   32.0046  -75.1451 H         1 UNK         0.3213 
     97 H97       -75.9761   30.6284  -74.8059 H         1 UNK         0.0855 
     98 H98       -77.0657   32.4038  -76.1889 H         1 UNK         0.0814 
     99 H99       -78.2229   31.1438  -75.7922 H         1 UNK         0.0814 
    100 H100      -77.5076   31.2126  -77.4030 H         1 UNK         0.0814 
    101 H101      -77.3609   28.8604  -76.5881 H         1 UNK         0.3105 
    102 H102      -77.5299   26.7272  -75.6865 H         1 UNK         0.0547 
    103 H103      -76.5989   25.0995  -77.3421 H         1 UNK         0.0837 
    104 H104      -76.4662   26.7357  -77.9675 H         1 UNK         0.0837 
    105 H105      -75.0455   25.9320  -77.3176 H         1 UNK         0.0837 
    106 H106      -74.9712   25.8950  -74.5024 H         1 UNK         0.3020 
    107 H107      -74.9231   23.7184  -73.5076 H         1 UNK         0.1245 
    108 H108      -75.2951   25.6618  -71.8716 H         1 UNK         0.0781 
    109 H109      -74.9360   24.1245  -71.1484 H         1 UNK         0.0781 
    110 H110      -75.9313   26.1295  -69.1616 H         1 UNK         0.0836 
    111 H111      -77.6491   26.2986  -68.8906 H         1 UNK         0.0836 
    112 H112      -77.6411   22.8446  -72.7860 H         1 UNK         0.3022 
    113 H113      -77.0780   19.6297  -73.9083 H         1 UNK         0.0747 
    114 H114      -78.0263   18.8158  -71.7499 H         1 UNK         0.0793 
    115 H115      -76.3226   19.1986  -71.5694 H         1 UNK         0.0793 
    116 H116      -77.5351   20.3095  -70.9484 H         1 UNK         0.0793 
    117 H117      -79.2587   21.0148  -72.5760 H         1 UNK         0.3047 
    118 H118      -81.1670   21.5133  -74.8932 H         1 UNK         0.0822 
    119 H119      -80.9865   22.0163  -72.4826 H         1 UNK         0.0807 
    120 H120      -81.6417   23.4189  -73.2967 H         1 UNK         0.0807 
    121 H121      -79.9561   23.4152  -72.8015 H         1 UNK         0.0807 
    122 H122      -79.4850   23.9579  -75.3164 H         1 UNK         0.2946 
    123 H123      -79.3902   24.1975  -78.0519 H         1 UNK         0.1144 
    124 H124      -82.3157   24.9345  -78.5834 H         1 UNK         0.0793 
    125 H125      -81.3617   23.7566  -79.4736 H         1 UNK         0.0793 
    126 H126      -80.9403   25.4578  -79.5548 H         1 UNK         0.0793 
    127 H127      -79.2854   26.2478  -77.2048 H         1 UNK         0.2896 
@<TRIPOS>BOND
     1    1    2 1    
     2    1   67 1    
     3    1   68 1    
     4    1   69 1    
     5    2    3 2    
     6    2    4 am   BACKBONE|DICT|INTERRES
     7    4    5 1    
     8    4   70 1    
     9    5    6 1    
    10    5   65 1    
    11    5   71 1    
    12    6    7 1    
    13    6   72 1    
    14    6   73 1    
    15    7    8 1    
    16    8    9 1    
    17    8   74 1    
    18    8   75 1    
    19    9   10 ar   
    20    9   14 ar   
    21   10   11 ar   
    22   10   76 1    
    23   11   12 ar   
    24   11   48 1    
    25   12   13 ar   
    26   12   77 1    
    27   13   14 ar   
    28   13   15 1    
    29   14   78 1    
    30   15   16 1    
    31   15   79 1    
    32   15   80 1    
    33   16   17 1    
    34   17   18 1    
    35   17   81 1    
    36   17   82 1    
    37   18   19 1    
    38   18   22 1    
    39   18   83 1    
    40   19   20 am   BACKBONE|DICT|INTERRES
    41   19   21 2    
    42   20   84 1    
    43   20   85 1    
    44   22   23 am   BACKBONE|DICT|INTERRES
    45   22   86 1    
    46   23   24 2    
    47   23   25 1    
    48   25   26 1    
    49   25   27 1    
    50   25   87 1    
    51   26   88 1    
    52   26   89 1    
    53   26   90 1    
    54   27   28 am   BACKBONE|DICT|INTERRES
    55   27   91 1    
    56   28   29 2    
    57   28   30 1    
    58   30   31 1    
    59   30   32 1    
    60   30   92 1    
    61   31   93 1    
    62   31   94 1    
    63   31   95 1    
    64   32   33 am   BACKBONE|DICT|INTERRES
    65   32   96 1    
    66   33   34 2    
    67   33   35 1    
    68   35   36 1    
    69   35   37 1    
    70   35   97 1    
    71   36   98 1    
    72   36   99 1    
    73   36  100 1    
    74   37   38 am   BACKBONE|DICT|INTERRES
    75   37  101 1    
    76   38   39 2    
    77   38   40 1    
    78   40   41 1    
    79   40   42 1    
    80   40  102 1    
    81   41  103 1    
    82   41  104 1    
    83   41  105 1    
    84   42   43 am   BACKBONE|DICT|INTERRES
    85   42  106 1    
    86   43   44 2    
    87   43   45 1    
    88   45   46 1    
    89   45   49 1    
    90   45  107 1    
    91   46   47 1    
    92   46  108 1    
    93   46  109 1    
    94   47   48 1    
    95   48  110 1    
    96   48  111 1    
    97   49   50 am   BACKBONE|DICT|INTERRES
    98   49  112 1    
    99   50   51 2    
   100   50   52 1    
   101   52   53 1    
   102   52   54 1    
   103   52  113 1    
   104   53  114 1    
   105   53  115 1    
   106   53  116 1    
   107   54   55 am   BACKBONE|DICT|INTERRES
   108   54  117 1    
   109   55   56 2    
   110   55   57 1    
   111   57   58 1    
   112   57   59 1    
   113   57  118 1    
   114   58  119 1    
   115   58  120 1    
   116   58  121 1    
   117   59   60 am   BACKBONE|DICT|INTERRES
   118   59  122 1    
   119   60   61 2    
   120   60   62 1    
   121   62   63 1    
   122   62   64 1    
   123   62  123 1    
   124   63  124 1    
   125   63  125 1    
   126   63  126 1    
   127   64   65 am   BACKBONE|DICT|INTERRES
   128   64  127 1    
   129   65   66 2    
@<TRIPOS>SUBSTRUCTURE
     1 UNK         1 GROUP             0       ****    0 ROOT    
