@<TRIPOS>MOLECULE
3R135
127   129    1
SMALL
USER_CHARGES


@<TRIPOS>ATOM
      1 CA        -81.1872   26.8972  -78.5449 C.3       0 UNK        -0.1998 
      2 C         -81.5619   27.5013  -77.1991 C.2       0 UNK         0.4909 
      3 O         -82.4515   28.3504  -77.1449 O.2       0 UNK        -0.5240 
      4 N         -80.8771   27.0563  -76.1376 N.am      1 UNK        -0.4739 
      5 CA        -81.0701   27.3608  -74.7134 C.3       1 UNK         0.0864 
      6 C6        -81.2696   28.8545  -74.3326 C.3       11 UNK        -0.0881 
      7 S7        -79.8501   29.9169  -74.7758 S.3       11 UNK        -0.2682 
      8 C8        -79.1137   30.3019  -73.1519 C.3       11 UNK         0.0289 
      9 C9        -78.1130   29.2452  -72.7009 C.ar      11 UNK        -0.0687 
     10 C10       -78.5566   28.0210  -72.1933 C.ar      11 UNK        -0.0823 
     11 C11       -77.6439   27.0454  -71.7830 C.ar      11 UNK        -0.0830 
     12 C12       -76.2757   27.3263  -71.8213 C.ar      11 UNK        -0.1021 
     13 C13       -75.8170   28.5558  -72.3022 C.ar      11 UNK        -0.0753 
     14 C14       -76.7391   29.5031  -72.7603 C.ar      11 UNK        -0.0933 
     15 C15       -74.3271   28.8629  -72.3149 C.3       11 UNK         0.0166 
     16 S16       -73.9208   30.1069  -71.0489 S.3       11 UNK        -0.2615 
     17 C17       -72.1053   29.9805  -70.9313 C.3       11 UNK        -0.0865 
     18 CA        -71.3735   31.0192  -71.8209 C.3       10 UNK         0.0862 
     19 C         -69.9049   31.1974  -71.3639 C.2       10 UNK         0.5551 
     20 N         -69.5853   32.3058  -70.7107 N.am      10 UNK        -0.7319 
     21 O         -69.0634   30.3233  -71.5622 O.2       10 UNK        -0.5018 
     22 N         -71.3852   30.6025  -73.2242 N.am      10 UNK        -0.4509 
     23 C         -72.0224   31.1989  -74.2335 C.2       10 UNK         0.4899 
     24 O         -72.7142   32.2093  -74.1068 O.2       10 UNK        -0.4839 
     25 CA        -71.8934   30.5566  -75.6290 C.3       9 UNK         0.0222 
     26 CB        -70.7345   31.1891  -76.4239 C.3       9 UNK        -0.1966 
     27 N         -71.8175   29.0853  -75.6398 N.am      9 UNK        -0.4218 
     28 C         -70.8402   28.2826  -75.1830 C.2       9 UNK         0.5020 
     29 O         -69.8134   28.7006  -74.6477 O.2       9 UNK        -0.5274 
     30 CA        -71.0387   26.7580  -75.2915 C.3       8 UNK         0.0270 
     31 CB        -71.2866   26.1526  -73.8996 C.3       8 UNK        -0.1976 
     32 N         -72.1336   26.3748  -76.1848 N.am      8 UNK        -0.4313 
     33 C         -72.0728   26.4374  -77.5241 C.2       8 UNK         0.5041 
     34 O         -71.0472   26.7215  -78.1442 O.2       8 UNK        -0.5577 
     35 CA        -73.3693   26.1713  -78.3140 C.3       7 UNK         0.0284 
     36 CB        -73.3381   24.7663  -78.9361 C.3       7 UNK        -0.1958 
     37 N         -74.5956   26.3276  -77.5240 N.am      7 UNK        -0.4454 
     38 C         -74.9969   27.4707  -76.9440 C.2       7 UNK         0.5089 
     39 O         -74.3856   28.5343  -77.0468 O.2       7 UNK        -0.5125 
     40 CA        -76.2533   27.4180  -76.0557 C.3       6 UNK         0.0408 
     41 CB        -77.4771   27.8712  -76.8607 C.3       6 UNK        -0.1791 
     42 N         -76.5263   26.1044  -75.4646 N.am      6 UNK        -0.4762 
     43 C         -75.6794   25.3917  -74.7057 C.2       6 UNK         0.5007 
     44 O         -74.5654   25.7932  -74.3661 O.2       6 UNK        -0.5032 
     45 CA        -76.1064   23.9540  -74.3374 C.3       5 UNK         0.0783 
     46 C46       -76.6627   23.8634  -72.8921 C.3       11 UNK        -0.0857 
     47 S47       -78.3588   24.5255  -72.6771 S.3       11 UNK        -0.2512 
     48 C48       -78.1418   25.6940  -71.2947 C.3       11 UNK         0.0225 
     49 N         -77.0143   23.3231  -75.3053 N.am      5 UNK        -0.4615 
     50 C         -76.8397   23.2006  -76.6295 C.2       4 UNK         0.5053 
     51 O         -75.8392   23.6085  -77.2189 O.2       4 UNK        -0.5105 
     52 CA        -77.9695   22.5371  -77.4472 C.3       4 UNK         0.0263 
     53 CB        -77.4410   21.3039  -78.1995 C.3       4 UNK        -0.1981 
     54 N         -79.1475   22.1441  -76.6628 N.am      4 UNK        -0.4224 
     55 C         -80.0090   22.9835  -76.0734 C.2       3 UNK         0.4895 
     56 O         -79.9171   24.2139  -76.1503 O.2       3 UNK        -0.5091 
     57 CA        -81.1109   22.3515  -75.2036 C.3       3 UNK         0.0250 
     58 CB        -80.7026   21.0073  -74.5601 C.3       3 UNK        -0.1996 
     59 N         -81.4404   23.3230  -74.1718 N.am      3 UNK        -0.4254 
     60 C         -82.5573   23.4056  -73.4412 C.2       2 UNK         0.5004 
     61 O         -83.4701   22.5798  -73.4726 O.2       2 UNK        -0.5226 
     62 CA        -82.6754   24.6474  -72.5339 C.3       2 UNK         0.0269 
     63 CB        -82.2288   24.3125  -71.1015 C.3       2 UNK        -0.1926 
     64 N         -81.8734   25.7697  -73.0384 N.am      2 UNK        -0.4687 
     65 C         -82.1837   26.4658  -74.1418 C.2       1 UNK         0.5165 
     66 O         -83.2750   26.3828  -74.7094 O.2       1 UNK        -0.5079 
     67 H67       -80.7980   27.6698  -79.2074 H         1 UNK         0.0900 
     68 H68       -80.4290   26.1199  -78.4465 H         1 UNK         0.0900 
     69 H69       -82.0650   26.4541  -79.0145 H         1 UNK         0.0900 
     70 H70       -80.2469   26.2770  -76.2952 H         1 UNK         0.2959 
     71 H71       -80.1344   27.0350  -74.2590 H         1 UNK         0.1079 
     72 H72       -82.1636   29.2618  -74.8055 H         1 UNK         0.0837 
     73 H73       -81.4549   28.9464  -73.2614 H         1 UNK         0.0837 
     74 H74       -78.6191   31.2715  -73.2274 H         1 UNK         0.0685 
     75 H75       -79.8933   30.4266  -72.3992 H         1 UNK         0.0685 
     76 H76       -79.6157   27.8257  -72.1219 H         1 UNK         0.1434 
     77 H77       -75.5646   26.5860  -71.4824 H         1 UNK         0.1329 
     78 H78       -76.3830   30.4521  -73.1375 H         1 UNK         0.1335 
     79 H79       -73.7509   27.9545  -72.1349 H         1 UNK         0.0680 
     80 H80       -74.0371   29.2261  -73.3011 H         1 UNK         0.0680 
     81 H81       -71.8564   30.1392  -69.8799 H         1 UNK         0.1032 
     82 H82       -71.7785   28.9645  -71.1608 H         1 UNK         0.1032 
     83 H83       -71.8751   31.9836  -71.7160 H         1 UNK         0.0461 
     84 H84       -70.2721   33.0226  -70.5328 H         1 UNK         0.3453 
     85 H85       -68.6368   32.4317  -70.3931 H         1 UNK         0.3453 
     86 H86       -70.7488   29.8443  -73.4584 H         1 UNK         0.2984 
     87 H87       -72.8165   30.7946  -76.1600 H         1 UNK         0.0554 
     88 H88       -70.8672   32.2683  -76.5104 H         1 UNK         0.0847 
     89 H89       -70.6820   30.7870  -77.4357 H         1 UNK         0.0847 
     90 H90       -69.7694   31.0212  -75.9451 H         1 UNK         0.0847 
     91 H91       -72.6316   28.6410  -76.0539 H         1 UNK         0.3141 
     92 H92       -70.1110   26.3361  -75.6840 H         1 UNK         0.0743 
     93 H93       -72.1784   26.5693  -73.4313 H         1 UNK         0.0784 
     94 H94       -71.4093   25.0707  -73.9514 H         1 UNK         0.0784 
     95 H95       -70.4471   26.3515  -73.2319 H         1 UNK         0.0784 
     96 H96       -73.0140   26.1301  -75.7418 H         1 UNK         0.3213 
     97 H97       -73.4078   26.9029  -79.1238 H         1 UNK         0.0855 
     98 H98       -73.2882   23.9893  -78.1722 H         1 UNK         0.0814 
     99 H99       -72.4679   24.6440  -79.5825 H         1 UNK         0.0814 
    100 H100      -74.2228   24.5803  -79.5454 H         1 UNK         0.0814 
    101 H101      -75.1409   25.4838  -77.3692 H         1 UNK         0.3105 
    102 H102      -76.1016   28.1198  -75.2343 H         1 UNK         0.0547 
    103 H103      -77.3184   28.8595  -77.2946 H         1 UNK         0.0837 
    104 H104      -77.7065   27.1854  -77.6771 H         1 UNK         0.0837 
    105 H105      -78.3524   27.9418  -76.2210 H         1 UNK         0.0837 
    106 H106      -77.4130   25.6779  -75.6915 H         1 UNK         0.3020 
    107 H107      -75.1856   23.3673  -74.3673 H         1 UNK         0.1245 
    108 H108      -75.9774   24.3417  -72.1908 H         1 UNK         0.0781 
    109 H109      -76.6898   22.8160  -72.5880 H         1 UNK         0.0781 
    110 H110      -77.4618   25.2753  -70.5511 H         1 UNK         0.0836 
    111 H111      -79.0986   25.8170  -70.7852 H         1 UNK         0.0836 
    112 H112      -77.8819   22.9849  -74.9181 H         1 UNK         0.3022 
    113 H113      -78.2928   23.2731  -78.1864 H         1 UNK         0.0747 
    114 H114      -78.2075   20.8725  -78.8437 H         1 UNK         0.0793 
    115 H115      -76.5965   21.5653  -78.8390 H         1 UNK         0.0793 
    116 H116      -77.1010   20.5277  -77.5129 H         1 UNK         0.0793 
    117 H117      -79.2845   21.1520  -76.5319 H         1 UNK         0.3047 
    118 H118      -81.9866   22.2014  -75.8380 H         1 UNK         0.0822 
    119 H119      -80.5440   20.2329  -75.3111 H         1 UNK         0.0807 
    120 H120      -81.4804   20.6353  -73.8930 H         1 UNK         0.0807 
    121 H121      -79.7870   21.1013  -73.9744 H         1 UNK         0.0807 
    122 H122      -80.7745   24.0815  -74.1083 H         1 UNK         0.2946 
    123 H123      -83.7267   24.9446  -72.5121 H         1 UNK         0.1144 
    124 H124      -82.3447   25.1698  -70.4382 H         1 UNK         0.0793 
    125 H125      -81.1854   23.9965  -71.0653 H         1 UNK         0.0793 
    126 H126      -82.8287   23.5007  -70.6876 H         1 UNK         0.0793 
    127 H127      -80.9698   25.8980  -72.6071 H         1 UNK         0.2896 
@<TRIPOS>BOND
     1    1    2 1    
     2    1   67 1    
     3    1   68 1    
     4    1   69 1    
     5    2    3 2    
     6    2    4 am   BACKBONE|DICT|INTERRES
     7    4    5 1    
     8    4   70 1    
     9    5    6 1    
    10    5   65 1    
    11    5   71 1    
    12    6    7 1    
    13    6   72 1    
    14    6   73 1    
    15    7    8 1    
    16    8    9 1    
    17    8   74 1    
    18    8   75 1    
    19    9   10 ar   
    20    9   14 ar   
    21   10   11 ar   
    22   10   76 1    
    23   11   12 ar   
    24   11   48 1    
    25   12   13 ar   
    26   12   77 1    
    27   13   14 ar   
    28   13   15 1    
    29   14   78 1    
    30   15   16 1    
    31   15   79 1    
    32   15   80 1    
    33   16   17 1    
    34   17   18 1    
    35   17   81 1    
    36   17   82 1    
    37   18   19 1    
    38   18   22 1    
    39   18   83 1    
    40   19   20 am   BACKBONE|DICT|INTERRES
    41   19   21 2    
    42   20   84 1    
    43   20   85 1    
    44   22   23 am   BACKBONE|DICT|INTERRES
    45   22   86 1    
    46   23   24 2    
    47   23   25 1    
    48   25   26 1    
    49   25   27 1    
    50   25   87 1    
    51   26   88 1    
    52   26   89 1    
    53   26   90 1    
    54   27   28 am   BACKBONE|DICT|INTERRES
    55   27   91 1    
    56   28   29 2    
    57   28   30 1    
    58   30   31 1    
    59   30   32 1    
    60   30   92 1    
    61   31   93 1    
    62   31   94 1    
    63   31   95 1    
    64   32   33 am   BACKBONE|DICT|INTERRES
    65   32   96 1    
    66   33   34 2    
    67   33   35 1    
    68   35   36 1    
    69   35   37 1    
    70   35   97 1    
    71   36   98 1    
    72   36   99 1    
    73   36  100 1    
    74   37   38 am   BACKBONE|DICT|INTERRES
    75   37  101 1    
    76   38   39 2    
    77   38   40 1    
    78   40   41 1    
    79   40   42 1    
    80   40  102 1    
    81   41  103 1    
    82   41  104 1    
    83   41  105 1    
    84   42   43 am   BACKBONE|DICT|INTERRES
    85   42  106 1    
    86   43   44 2    
    87   43   45 1    
    88   45   46 1    
    89   45   49 1    
    90   45  107 1    
    91   46   47 1    
    92   46  108 1    
    93   46  109 1    
    94   47   48 1    
    95   48  110 1    
    96   48  111 1    
    97   49   50 am   BACKBONE|DICT|INTERRES
    98   49  112 1    
    99   50   51 2    
   100   50   52 1    
   101   52   53 1    
   102   52   54 1    
   103   52  113 1    
   104   53  114 1    
   105   53  115 1    
   106   53  116 1    
   107   54   55 am   BACKBONE|DICT|INTERRES
   108   54  117 1    
   109   55   56 2    
   110   55   57 1    
   111   57   58 1    
   112   57   59 1    
   113   57  118 1    
   114   58  119 1    
   115   58  120 1    
   116   58  121 1    
   117   59   60 am   BACKBONE|DICT|INTERRES
   118   59  122 1    
   119   60   61 2    
   120   60   62 1    
   121   62   63 1    
   122   62   64 1    
   123   62  123 1    
   124   63  124 1    
   125   63  125 1    
   126   63  126 1    
   127   64   65 am   BACKBONE|DICT|INTERRES
   128   64  127 1    
   129   65   66 2    
@<TRIPOS>SUBSTRUCTURE
     1 UNK         1 GROUP             0       ****    0 ROOT    
