@<TRIPOS>MOLECULE
3R135
127   129    1
SMALL
USER_CHARGES


@<TRIPOS>ATOM
      1 CA        -84.7179   32.4656  -72.5929 C.3       0 UNK        -0.1998 
      2 C         -83.4082   31.8095  -73.0041 C.2       0 UNK         0.4909 
      3 O         -82.6830   32.3587  -73.8342 O.2       0 UNK        -0.5240 
      4 N         -83.0963   30.6438  -72.4236 N.am      1 UNK        -0.4739 
      5 CA        -81.9155   29.8400  -72.7500 C.3       1 UNK         0.0864 
      6 C6        -81.6521   28.7789  -71.6511 C.3       11 UNK        -0.0881 
      7 S7        -80.0566   27.9290  -71.8830 S.3       11 UNK        -0.2682 
      8 C8        -79.2295   28.1594  -70.2870 C.3       11 UNK         0.0289 
      9 C9        -77.7805   27.7217  -70.4076 C.ar      11 UNK        -0.0687 
     10 C10       -77.4530   26.3630  -70.4311 C.ar      11 UNK        -0.0823 
     11 C11       -76.1278   25.9550  -70.6107 C.ar      11 UNK        -0.0830 
     12 C12       -75.1246   26.9193  -70.7546 C.ar      11 UNK        -0.1021 
     13 C13       -75.4422   28.2815  -70.7203 C.ar      11 UNK        -0.0753 
     14 C14       -76.7705   28.6759  -70.5421 C.ar      11 UNK        -0.0933 
     15 C15       -74.3534   29.3308  -70.8773 C.3       11 UNK         0.0166 
     16 S16       -73.9231   29.6039  -72.6230 S.3       11 UNK        -0.2615 
     17 C17       -75.4368   30.3750  -73.2981 C.3       11 UNK        -0.0865 
     18 CA        -76.2729   29.4085  -74.1784 C.3       10 UNK         0.0862 
     19 C         -77.5643   30.1140  -74.6823 C.2       10 UNK         0.5551 
     20 N         -77.6696   30.4696  -75.9572 N.am      10 UNK        -0.7319 
     21 O         -78.4930   30.3313  -73.9094 O.2       10 UNK        -0.5018 
     22 N         -75.4564   28.8126  -75.2465 N.am      10 UNK        -0.4509 
     23 C         -75.7769   27.7287  -75.9581 C.2       10 UNK         0.4899 
     24 O         -76.8125   27.0797  -75.7983 O.2       10 UNK        -0.4839 
     25 CA        -74.7612   27.2670  -77.0174 C.3       9 UNK         0.0222 
     26 CB        -74.9627   28.0084  -78.3523 C.3       9 UNK        -0.1966 
     27 N         -73.3617   27.2958  -76.5642 N.am      9 UNK        -0.4218 
     28 C         -72.5598   28.3415  -76.3152 C.2       9 UNK         0.5020 
     29 O         -72.9133   29.5109  -76.4737 O.2       9 UNK        -0.5274 
     30 CA        -71.1384   28.0658  -75.7828 C.3       8 UNK         0.0270 
     31 CB        -70.9146   28.7243  -74.4081 C.3       8 UNK        -0.1976 
     32 N         -70.7739   26.6438  -75.7026 N.am      8 UNK        -0.4313 
     33 C         -69.5205   26.1804  -75.8272 C.2       8 UNK         0.5041 
     34 O         -68.5502   26.8974  -76.0785 O.2       8 UNK        -0.5577 
     35 CA        -69.2860   24.6686  -75.6250 C.3       7 UNK         0.0284 
     36 CB        -68.9028   24.3794  -74.1644 C.3       7 UNK        -0.1958 
     37 N         -70.4312   23.8342  -75.9945 N.am      7 UNK        -0.4454 
     38 C         -70.9075   23.7030  -77.2384 C.2       7 UNK         0.5089 
     39 O         -70.3578   24.1854  -78.2292 O.2       7 UNK        -0.5125 
     40 CA        -72.2227   22.9203  -77.4295 C.3       6 UNK         0.0408 
     41 CB        -71.9174   21.5002  -77.9336 C.3       6 UNK        -0.1791 
     42 N         -73.1601   22.8259  -76.2964 N.am      6 UNK        -0.4762 
     43 C         -73.5604   23.7974  -75.4624 C.2       6 UNK         0.5007 
     44 O         -73.0071   24.8921  -75.3632 O.2       6 UNK        -0.5032 
     45 CA        -74.8494   23.5365  -74.6609 C.3       5 UNK         0.0783 
     46 C46       -74.8148   24.2274  -73.2742 C.3       11 UNK        -0.0857 
     47 S47       -76.2224   23.7119  -72.2386 S.3       11 UNK        -0.2512 
     48 C48       -75.7908   24.4715  -70.6411 C.3       11 UNK         0.0225 
     49 N         -75.9840   24.0036  -75.4614 N.am      5 UNK        -0.4615 
     50 C         -76.4762   23.3911  -76.5461 C.2       4 UNK         0.5053 
     51 O         -76.0984   22.2856  -76.9381 O.2       4 UNK        -0.5105 
     52 CA        -77.5594   24.1657  -77.3177 C.3       4 UNK         0.0263 
     53 CB        -78.2123   23.3508  -78.4554 C.3       4 UNK        -0.1981 
     54 N         -78.5581   24.7465  -76.4141 N.am      4 UNK        -0.4224 
     55 C         -79.4558   24.0891  -75.6637 C.2       3 UNK         0.4895 
     56 O         -79.6054   22.8666  -75.6792 O.2       3 UNK        -0.5091 
     57 CA        -80.3363   24.9245  -74.7151 C.3       3 UNK         0.0250 
     58 CB        -79.9014   24.6984  -73.2572 C.3       3 UNK        -0.1996 
     59 N         -80.3465   26.3647  -75.0013 N.am      3 UNK        -0.4254 
     60 C         -80.9262   26.9347  -76.0691 C.2       2 UNK         0.5004 
     61 O         -81.5355   26.3002  -76.9320 O.2       2 UNK        -0.5226 
     62 CA        -80.7858   28.4660  -76.1887 C.3       2 UNK         0.0269 
     63 CB        -81.6876   29.0804  -77.2810 C.3       2 UNK        -0.1926 
     64 N         -80.9640   29.1540  -74.9029 N.am      2 UNK        -0.4687 
     65 C         -82.0688   29.1865  -74.1425 C.2       1 UNK         0.5165 
     66 O         -83.1527   28.6938  -74.4668 O.2       1 UNK        -0.5079 
     67 H67       -85.2505   31.8796  -71.8441 H         1 UNK         0.0900 
     68 H68       -85.3684   32.5792  -73.4598 H         1 UNK         0.0900 
     69 H69       -84.5280   33.4547  -72.1770 H         1 UNK         0.0900 
     70 H70       -83.7464   30.2253  -71.7736 H         1 UNK         0.2959 
     71 H71       -81.0587   30.5182  -72.7802 H         1 UNK         0.1079 
     72 H72       -81.6605   29.2533  -70.6686 H         1 UNK         0.0837 
     73 H73       -82.4469   28.0304  -71.6319 H         1 UNK         0.0837 
     74 H74       -79.7391   27.5757  -69.5189 H         1 UNK         0.0685 
     75 H75       -79.2921   29.2066  -69.9868 H         1 UNK         0.0685 
     76 H76       -78.2355   25.6221  -70.3375 H         1 UNK         0.1434 
     77 H77       -74.0976   26.6131  -70.8995 H         1 UNK         0.1329 
     78 H78       -77.0229   29.7272  -70.5282 H         1 UNK         0.1335 
     79 H79       -74.6556   30.2761  -70.4235 H         1 UNK         0.0680 
     80 H80       -73.4588   29.0094  -70.3420 H         1 UNK         0.0680 
     81 H81       -76.0394   30.7696  -72.4786 H         1 UNK         0.1032 
     82 H82       -75.1309   31.2439  -73.8839 H         1 UNK         0.1032 
     83 H83       -76.6069   28.5880  -73.5399 H         1 UNK         0.0461 
     84 H84       -76.9086   30.2997  -76.5945 H         1 UNK         0.3453 
     85 H85       -78.4967   30.9485  -76.2744 H         1 UNK         0.3453 
     86 H86       -74.5790   29.2756  -75.4616 H         1 UNK         0.2984 
     87 H87       -74.9701   26.2136  -77.2051 H         1 UNK         0.0554 
     88 H88       -74.2865   27.6320  -79.1198 H         1 UNK         0.0847 
     89 H89       -74.7969   29.0816  -78.2571 H         1 UNK         0.0847 
     90 H90       -75.9800   27.8715  -78.7214 H         1 UNK         0.0847 
     91 H91       -73.0255   26.3778  -76.2849 H         1 UNK         0.3141 
     92 H92       -70.4749   28.5529  -76.5005 H         1 UNK         0.0743 
     93 H93       -71.2219   29.7710  -74.4099 H         1 UNK         0.0784 
     94 H94       -71.4811   28.2158  -73.6278 H         1 UNK         0.0784 
     95 H95       -69.8626   28.7008  -74.1239 H         1 UNK         0.0784 
     96 H96       -71.5117   25.9803  -75.4776 H         1 UNK         0.3213 
     97 H97       -68.4458   24.3817  -76.2612 H         1 UNK         0.0855 
     98 H98       -69.7132   24.6267  -73.4774 H         1 UNK         0.0814 
     99 H99       -68.0330   24.9668  -73.8663 H         1 UNK         0.0814 
    100 H100      -68.6466   23.3296  -74.0205 H         1 UNK         0.0814 
    101 H101      -70.9600   23.4176  -75.2420 H         1 UNK         0.3105 
    102 H102      -72.7677   23.4400  -78.2199 H         1 UNK         0.0547 
    103 H103      -71.2530   21.5225  -78.7988 H         1 UNK         0.0837 
    104 H104      -71.4314   20.8976  -77.1654 H         1 UNK         0.0837 
    105 H105      -72.8258   20.9829  -78.2429 H         1 UNK         0.0837 
    106 H106      -73.7267   21.9879  -76.3006 H         1 UNK         0.3020 
    107 H107      -74.9434   22.4593  -74.5047 H         1 UNK         0.1245 
    108 H108      -74.8281   25.3150  -73.3750 H         1 UNK         0.0781 
    109 H109      -73.8937   23.9755  -72.7448 H         1 UNK         0.0781 
    110 H110      -74.7346   24.3057  -70.4231 H         1 UNK         0.0836 
    111 H111      -76.3447   23.9619  -69.8513 H         1 UNK         0.0836 
    112 H112      -76.3550   24.9123  -75.2164 H         1 UNK         0.3022 
    113 H113      -77.0516   25.0108  -77.7840 H         1 UNK         0.0747 
    114 H114      -78.9772   23.9317  -78.9707 H         1 UNK         0.0793 
    115 H115      -77.4692   23.0605  -79.1990 H         1 UNK         0.0793 
    116 H116      -78.6754   22.4339  -78.0902 H         1 UNK         0.0793 
    117 H117      -78.4695   25.7452  -76.2667 H         1 UNK         0.3047 
    118 H118      -81.3577   24.5540  -74.8252 H         1 UNK         0.0822 
    119 H119      -79.8223   23.6351  -73.0263 H         1 UNK         0.0807 
    120 H120      -80.6246   25.1198  -72.5596 H         1 UNK         0.0807 
    121 H121      -78.9287   25.1476  -73.0515 H         1 UNK         0.0807 
    122 H122      -79.8932   26.9622  -74.3228 H         1 UNK         0.2946 
    123 H123      -79.7516   28.6389  -76.4895 H         1 UNK         0.1144 
    124 H124      -81.4506   28.6643  -78.2610 H         1 UNK         0.0793 
    125 H125      -81.5513   30.1598  -77.3470 H         1 UNK         0.0793 
    126 H126      -82.7441   28.8859  -77.0948 H         1 UNK         0.0793 
    127 H127      -80.1221   29.5789  -74.5186 H         1 UNK         0.2896 
@<TRIPOS>BOND
     1    1    2 1    
     2    1   67 1    
     3    1   68 1    
     4    1   69 1    
     5    2    3 2    
     6    2    4 am   BACKBONE|DICT|INTERRES
     7    4    5 1    
     8    4   70 1    
     9    5    6 1    
    10    5   65 1    
    11    5   71 1    
    12    6    7 1    
    13    6   72 1    
    14    6   73 1    
    15    7    8 1    
    16    8    9 1    
    17    8   74 1    
    18    8   75 1    
    19    9   10 ar   
    20    9   14 ar   
    21   10   11 ar   
    22   10   76 1    
    23   11   12 ar   
    24   11   48 1    
    25   12   13 ar   
    26   12   77 1    
    27   13   14 ar   
    28   13   15 1    
    29   14   78 1    
    30   15   16 1    
    31   15   79 1    
    32   15   80 1    
    33   16   17 1    
    34   17   18 1    
    35   17   81 1    
    36   17   82 1    
    37   18   19 1    
    38   18   22 1    
    39   18   83 1    
    40   19   20 am   BACKBONE|DICT|INTERRES
    41   19   21 2    
    42   20   84 1    
    43   20   85 1    
    44   22   23 am   BACKBONE|DICT|INTERRES
    45   22   86 1    
    46   23   24 2    
    47   23   25 1    
    48   25   26 1    
    49   25   27 1    
    50   25   87 1    
    51   26   88 1    
    52   26   89 1    
    53   26   90 1    
    54   27   28 am   BACKBONE|DICT|INTERRES
    55   27   91 1    
    56   28   29 2    
    57   28   30 1    
    58   30   31 1    
    59   30   32 1    
    60   30   92 1    
    61   31   93 1    
    62   31   94 1    
    63   31   95 1    
    64   32   33 am   BACKBONE|DICT|INTERRES
    65   32   96 1    
    66   33   34 2    
    67   33   35 1    
    68   35   36 1    
    69   35   37 1    
    70   35   97 1    
    71   36   98 1    
    72   36   99 1    
    73   36  100 1    
    74   37   38 am   BACKBONE|DICT|INTERRES
    75   37  101 1    
    76   38   39 2    
    77   38   40 1    
    78   40   41 1    
    79   40   42 1    
    80   40  102 1    
    81   41  103 1    
    82   41  104 1    
    83   41  105 1    
    84   42   43 am   BACKBONE|DICT|INTERRES
    85   42  106 1    
    86   43   44 2    
    87   43   45 1    
    88   45   46 1    
    89   45   49 1    
    90   45  107 1    
    91   46   47 1    
    92   46  108 1    
    93   46  109 1    
    94   47   48 1    
    95   48  110 1    
    96   48  111 1    
    97   49   50 am   BACKBONE|DICT|INTERRES
    98   49  112 1    
    99   50   51 2    
   100   50   52 1    
   101   52   53 1    
   102   52   54 1    
   103   52  113 1    
   104   53  114 1    
   105   53  115 1    
   106   53  116 1    
   107   54   55 am   BACKBONE|DICT|INTERRES
   108   54  117 1    
   109   55   56 2    
   110   55   57 1    
   111   57   58 1    
   112   57   59 1    
   113   57  118 1    
   114   58  119 1    
   115   58  120 1    
   116   58  121 1    
   117   59   60 am   BACKBONE|DICT|INTERRES
   118   59  122 1    
   119   60   61 2    
   120   60   62 1    
   121   62   63 1    
   122   62   64 1    
   123   62  123 1    
   124   63  124 1    
   125   63  125 1    
   126   63  126 1    
   127   64   65 am   BACKBONE|DICT|INTERRES
   128   64  127 1    
   129   65   66 2    
@<TRIPOS>SUBSTRUCTURE
     1 UNK         1 GROUP             0       ****    0 ROOT    
