@<TRIPOS>MOLECULE
3R135
127   129    1
SMALL
USER_CHARGES


@<TRIPOS>ATOM
      1 CA        -84.9408   26.2630  -73.0103 C.3       0 UNK        -0.1998 
      2 C         -83.6962   26.4278  -72.1418 C.2       0 UNK         0.4909 
      3 O         -83.7050   26.0010  -70.9889 O.2       0 UNK        -0.5240 
      4 N         -82.6072   27.0363  -72.6342 N.am      1 UNK        -0.4739 
      5 CA        -82.4229   27.5745  -73.9918 C.3       1 UNK         0.0864 
      6 C6        -81.2231   28.5483  -74.0636 C.3       11 UNK        -0.0881 
      7 S7        -81.3711   29.9656  -72.9310 S.3       11 UNK        -0.2682 
      8 C8        -79.7846   30.8126  -73.2607 C.3       11 UNK         0.0289 
      9 C9        -78.5258   30.1491  -72.6912 C.ar      11 UNK        -0.0687 
     10 C10       -78.5648   29.0683  -71.7977 C.ar      11 UNK        -0.0823 
     11 C11       -77.3874   28.5321  -71.2678 C.ar      11 UNK        -0.0830 
     12 C12       -76.1580   29.0862  -71.6332 C.ar      11 UNK        -0.1021 
     13 C13       -76.0973   30.1627  -72.5208 C.ar      11 UNK        -0.0753 
     14 C14       -77.2828   30.6851  -73.0462 C.ar      11 UNK        -0.0933 
     15 C15       -74.7567   30.8051  -72.8457 C.3       11 UNK         0.0166 
     16 S16       -74.3167   30.6867  -74.6080 S.3       11 UNK        -0.2615 
     17 C17       -72.6523   31.4476  -74.5566 C.3       11 UNK        -0.0865 
     18 CA        -71.5167   30.5395  -75.1199 C.3       10 UNK         0.0862 
     19 C         -70.1032   31.1926  -75.0333 C.2       10 UNK         0.5551 
     20 N         -69.9804   32.4761  -75.3472 N.am      10 UNK        -0.7319 
     21 O         -69.1026   30.5468  -74.7257 O.2       10 UNK        -0.5018 
     22 N         -71.5562   29.1621  -74.6042 N.am      10 UNK        -0.4509 
     23 C         -71.4369   28.7665  -73.3292 C.2       10 UNK         0.4899 
     24 O         -71.2552   29.5389  -72.3869 O.2       10 UNK        -0.4839 
     25 CA        -71.5647   27.2547  -73.0490 C.3       9 UNK         0.0222 
     26 CB        -72.4534   26.9839  -71.8213 C.3       9 UNK        -0.1966 
     27 N         -72.1248   26.5397  -74.1996 N.am      9 UNK        -0.4218 
     28 C         -71.4280   25.7865  -75.0604 C.2       9 UNK         0.5020 
     29 O         -70.2341   25.5139  -74.9288 O.2       9 UNK        -0.5274 
     30 CA        -72.1804   25.2839  -76.3064 C.3       8 UNK         0.0270 
     31 CB        -73.0189   24.0413  -75.9700 C.3       8 UNK        -0.1976 
     32 N         -73.0428   26.2996  -76.9191 N.am      8 UNK        -0.4313 
     33 C         -72.6481   27.4882  -77.3947 C.2       8 UNK         0.5041 
     34 O         -71.4767   27.8649  -77.3876 O.2       8 UNK        -0.5577 
     35 CA        -73.7298   28.4526  -77.9181 C.3       7 UNK         0.0284 
     36 CB        -74.0242   28.2115  -79.4117 C.3       7 UNK        -0.1958 
     37 N         -74.9547   28.4710  -77.1051 N.am      7 UNK        -0.4454 
     38 C         -75.8653   27.5019  -76.9565 C.2       7 UNK         0.5089 
     39 O         -75.8428   26.4318  -77.5662 O.2       7 UNK        -0.5125 
     40 CA        -76.9554   27.7459  -75.9051 C.3       6 UNK         0.0408 
     41 CB        -78.3125   27.9622  -76.5886 C.3       6 UNK        -0.1791 
     42 N         -77.0465   26.6244  -74.9674 N.am      6 UNK        -0.4762 
     43 C         -76.0545   26.2281  -74.1541 C.2       6 UNK         0.5007 
     44 O         -74.9504   26.7729  -74.1110 O.2       6 UNK        -0.5032 
     45 CA        -76.3112   24.9873  -73.2830 C.3       5 UNK         0.0783 
     46 C46       -77.2777   25.2754  -72.1068 C.3       11 UNK        -0.0857 
     47 S47       -76.4024   25.9773  -70.6709 S.3       11 UNK        -0.2512 
     48 C48       -77.4530   27.4036  -70.2446 C.3       11 UNK         0.0225 
     49 N         -76.7891   23.8833  -74.1154 N.am      5 UNK        -0.4615 
     50 C         -76.1904   22.6885  -74.2244 C.2       4 UNK         0.5053 
     51 O         -75.1727   22.3759  -73.6063 O.2       4 UNK        -0.5105 
     52 CA        -76.8257   21.6478  -75.1687 C.3       4 UNK         0.0263 
     53 CB        -77.5677   20.5721  -74.3584 C.3       4 UNK        -0.1981 
     54 N         -77.7538   22.2364  -76.1339 N.am      4 UNK        -0.4224 
     55 C         -77.3982   23.0028  -77.1740 C.2       3 UNK         0.4895 
     56 O         -76.2323   23.1506  -77.5381 O.2       3 UNK        -0.5091 
     57 CA        -78.5264   23.7421  -77.9234 C.3       3 UNK         0.0250 
     58 CB        -78.7073   23.1610  -79.3355 C.3       3 UNK        -0.1996 
     59 N         -79.8282   23.7427  -77.2368 N.am      3 UNK        -0.4254 
     60 C         -80.0856   24.3201  -76.0549 C.2       2 UNK         0.5004 
     61 O         -79.2336   24.8975  -75.3737 O.2       2 UNK        -0.5226 
     62 CA        -81.5072   24.1444  -75.5007 C.3       2 UNK         0.0269 
     63 CB        -81.6044   22.8363  -74.6984 C.3       2 UNK        -0.1926 
     64 N         -81.8612   25.2602  -74.6247 N.am      2 UNK        -0.4687 
     65 C         -82.2391   26.4709  -75.0558 C.2       1 UNK         0.5165 
     66 O         -82.4388   26.7375  -76.2414 O.2       1 UNK        -0.5079 
     67 H67       -85.7645   25.8625  -72.4196 H         1 UNK         0.0900 
     68 H68       -84.7568   25.5697  -73.8300 H         1 UNK         0.0900 
     69 H69       -85.2681   27.2181  -73.4190 H         1 UNK         0.0900 
     70 H70       -81.8159   27.1596  -72.0196 H         1 UNK         0.2959 
     71 H71       -83.3171   28.1367  -74.2671 H         1 UNK         0.1079 
     72 H72       -80.2918   28.0211  -73.8471 H         1 UNK         0.0837 
     73 H73       -81.1281   28.9529  -75.0733 H         1 UNK         0.0837 
     74 H74       -79.6719   30.9340  -74.3392 H         1 UNK         0.0685 
     75 H75       -79.8527   31.8189  -72.8452 H         1 UNK         0.0685 
     76 H76       -79.5109   28.6526  -71.4846 H         1 UNK         0.1434 
     77 H77       -75.2485   28.6904  -71.2041 H         1 UNK         0.1329 
     78 H78       -77.2351   31.5307  -73.7191 H         1 UNK         0.1335 
     79 H79       -74.7886   31.8561  -72.5551 H         1 UNK         0.0680 
     80 H80       -73.9638   30.3448  -72.2541 H         1 UNK         0.0680 
     81 H81       -72.4133   31.7458  -73.5342 H         1 UNK         0.1032 
     82 H82       -72.7122   32.3760  -75.1257 H         1 UNK         0.1032 
     83 H83       -71.6992   30.4291  -76.1888 H         1 UNK         0.0461 
     84 H84       -69.0665   32.9000  -75.3079 H         1 UNK         0.3453 
     85 H85       -70.7725   33.0277  -75.6357 H         1 UNK         0.3453 
     86 H86       -71.6140   28.4477  -75.3183 H         1 UNK         0.2984 
     87 H87       -70.5617   26.8864  -72.8259 H         1 UNK         0.0554 
     88 H88       -72.5464   25.9157  -71.6257 H         1 UNK         0.0847 
     89 H89       -73.4572   27.3855  -71.9580 H         1 UNK         0.0847 
     90 H90       -72.0378   27.4418  -70.9230 H         1 UNK         0.0847 
     91 H91       -73.1205   26.6879  -74.3639 H         1 UNK         0.3141 
     92 H92       -71.4334   25.0011  -77.0507 H         1 UNK         0.0743 
     93 H93       -73.8115   24.2743  -75.2591 H         1 UNK         0.0784 
     94 H94       -73.4850   23.6214  -76.8617 H         1 UNK         0.0784 
     95 H95       -72.4023   23.2585  -75.5263 H         1 UNK         0.0784 
     96 H96       -74.0332   26.0818  -76.9987 H         1 UNK         0.3213 
     97 H97       -73.3151   29.4582  -77.8316 H         1 UNK         0.0855 
     98 H98       -73.1189   28.3348  -80.0075 H         1 UNK         0.0814 
     99 H99       -74.7605   28.9202  -79.7905 H         1 UNK         0.0814 
    100 H100      -74.3975   27.2050  -79.6017 H         1 UNK         0.0814 
    101 H101      -75.0395   29.2759  -76.4958 H         1 UNK         0.3105 
    102 H102      -76.7106   28.6407  -75.3287 H         1 UNK         0.0547 
    103 H103      -78.2723   28.8026  -77.2825 H         1 UNK         0.0837 
    104 H104      -78.6260   27.0844  -77.1546 H         1 UNK         0.0837 
    105 H105      -79.0864   28.1827  -75.8592 H         1 UNK         0.0837 
    106 H106      -77.9021   26.0747  -75.0096 H         1 UNK         0.3020 
    107 H107      -75.3399   24.7141  -72.8631 H         1 UNK         0.1245 
    108 H108      -77.7350   24.3460  -71.7633 H         1 UNK         0.0781 
    109 H109      -78.1083   25.9155  -72.4113 H         1 UNK         0.0781 
    110 H110      -77.1305   27.7950  -69.2789 H         1 UNK         0.0836 
    111 H111      -78.4782   27.0568  -70.1050 H         1 UNK         0.0836 
    112 H112      -77.6190   24.0741  -74.6682 H         1 UNK         0.3022 
    113 H113      -76.0147   21.1670  -75.7201 H         1 UNK         0.0747 
    114 H114      -77.9689   19.7925  -75.0064 H         1 UNK         0.0793 
    115 H115      -76.8965   20.0863  -73.6486 H         1 UNK         0.0793 
    116 H116      -78.3950   20.9949  -73.7869 H         1 UNK         0.0793 
    117 H117      -78.7373   22.1500  -75.9272 H         1 UNK         0.3047 
    118 H118      -78.2041   24.7810  -78.0206 H         1 UNK         0.0822 
    119 H119      -79.4316   23.7360  -79.9127 H         1 UNK         0.0807 
    120 H120      -79.0451   22.1243  -79.3054 H         1 UNK         0.0807 
    121 H121      -77.7677   23.1814  -79.8899 H         1 UNK         0.0807 
    122 H122      -80.5799   23.2663  -77.7154 H         1 UNK         0.2946 
    123 H123      -82.2136   24.1067  -76.3336 H         1 UNK         0.1144 
    124 H124      -81.3906   21.9709  -75.3272 H         1 UNK         0.0793 
    125 H125      -82.6058   22.6961  -74.2908 H         1 UNK         0.0793 
    126 H126      -80.8993   22.8179  -73.8659 H         1 UNK         0.0793 
    127 H127      -81.6818   25.1402  -73.6383 H         1 UNK         0.2896 
@<TRIPOS>BOND
     1    1    2 1    
     2    1   67 1    
     3    1   68 1    
     4    1   69 1    
     5    2    3 2    
     6    2    4 am   BACKBONE|DICT|INTERRES
     7    4    5 1    
     8    4   70 1    
     9    5    6 1    
    10    5   65 1    
    11    5   71 1    
    12    6    7 1    
    13    6   72 1    
    14    6   73 1    
    15    7    8 1    
    16    8    9 1    
    17    8   74 1    
    18    8   75 1    
    19    9   10 ar   
    20    9   14 ar   
    21   10   11 ar   
    22   10   76 1    
    23   11   12 ar   
    24   11   48 1    
    25   12   13 ar   
    26   12   77 1    
    27   13   14 ar   
    28   13   15 1    
    29   14   78 1    
    30   15   16 1    
    31   15   79 1    
    32   15   80 1    
    33   16   17 1    
    34   17   18 1    
    35   17   81 1    
    36   17   82 1    
    37   18   19 1    
    38   18   22 1    
    39   18   83 1    
    40   19   20 am   BACKBONE|DICT|INTERRES
    41   19   21 2    
    42   20   84 1    
    43   20   85 1    
    44   22   23 am   BACKBONE|DICT|INTERRES
    45   22   86 1    
    46   23   24 2    
    47   23   25 1    
    48   25   26 1    
    49   25   27 1    
    50   25   87 1    
    51   26   88 1    
    52   26   89 1    
    53   26   90 1    
    54   27   28 am   BACKBONE|DICT|INTERRES
    55   27   91 1    
    56   28   29 2    
    57   28   30 1    
    58   30   31 1    
    59   30   32 1    
    60   30   92 1    
    61   31   93 1    
    62   31   94 1    
    63   31   95 1    
    64   32   33 am   BACKBONE|DICT|INTERRES
    65   32   96 1    
    66   33   34 2    
    67   33   35 1    
    68   35   36 1    
    69   35   37 1    
    70   35   97 1    
    71   36   98 1    
    72   36   99 1    
    73   36  100 1    
    74   37   38 am   BACKBONE|DICT|INTERRES
    75   37  101 1    
    76   38   39 2    
    77   38   40 1    
    78   40   41 1    
    79   40   42 1    
    80   40  102 1    
    81   41  103 1    
    82   41  104 1    
    83   41  105 1    
    84   42   43 am   BACKBONE|DICT|INTERRES
    85   42  106 1    
    86   43   44 2    
    87   43   45 1    
    88   45   46 1    
    89   45   49 1    
    90   45  107 1    
    91   46   47 1    
    92   46  108 1    
    93   46  109 1    
    94   47   48 1    
    95   48  110 1    
    96   48  111 1    
    97   49   50 am   BACKBONE|DICT|INTERRES
    98   49  112 1    
    99   50   51 2    
   100   50   52 1    
   101   52   53 1    
   102   52   54 1    
   103   52  113 1    
   104   53  114 1    
   105   53  115 1    
   106   53  116 1    
   107   54   55 am   BACKBONE|DICT|INTERRES
   108   54  117 1    
   109   55   56 2    
   110   55   57 1    
   111   57   58 1    
   112   57   59 1    
   113   57  118 1    
   114   58  119 1    
   115   58  120 1    
   116   58  121 1    
   117   59   60 am   BACKBONE|DICT|INTERRES
   118   59  122 1    
   119   60   61 2    
   120   60   62 1    
   121   62   63 1    
   122   62   64 1    
   123   62  123 1    
   124   63  124 1    
   125   63  125 1    
   126   63  126 1    
   127   64   65 am   BACKBONE|DICT|INTERRES
   128   64  127 1    
   129   65   66 2    
@<TRIPOS>SUBSTRUCTURE
     1 UNK         1 GROUP             0       ****    0 ROOT    
