@<TRIPOS>MOLECULE
3R135
127   129    1
SMALL
USER_CHARGES


@<TRIPOS>ATOM
      1 CA        -82.5664   26.2943  -73.0752 C.3       0 UNK        -0.1998 
      2 C         -81.7299   26.7415  -74.2636 C.2       0 UNK         0.4909 
      3 O         -82.1266   26.5134  -75.4068 O.2       0 UNK        -0.5240 
      4 N         -80.5737   27.3687  -74.0019 N.am      1 UNK        -0.4739 
      5 CA        -79.6321   27.8942  -74.9984 C.3       1 UNK         0.0864 
      6 C6        -78.4503   28.6629  -74.3556 C.3       11 UNK        -0.0881 
      7 S7        -78.9671   30.0557  -73.2875 S.3       11 UNK        -0.2682 
      8 C8        -78.9772   29.3473  -71.6040 C.3       11 UNK         0.0289 
      9 C9        -77.5931   28.9192  -71.1388 C.ar      11 UNK        -0.0687 
     10 C10       -77.1769   27.5997  -71.3189 C.ar      11 UNK        -0.0823 
     11 C11       -75.8924   27.1973  -70.9543 C.ar      11 UNK        -0.0830 
     12 C12       -75.0340   28.1151  -70.3417 C.ar      11 UNK        -0.1021 
     13 C13       -75.4522   29.4320  -70.1160 C.ar      11 UNK        -0.0753 
     14 C14       -76.7297   29.8313  -70.5259 C.ar      11 UNK        -0.0933 
     15 C15       -74.5240   30.4236  -69.4293 C.3       11 UNK         0.0166 
     16 S16       -73.1592   30.9531  -70.5106 S.3       11 UNK        -0.2615 
     17 C17       -74.0527   31.8073  -71.8578 C.3       11 UNK        -0.0865 
     18 CA        -74.1914   30.9390  -73.1445 C.3       10 UNK         0.0862 
     19 C         -75.0495   31.6283  -74.2487 C.2       10 UNK         0.5551 
     20 N         -74.8703   31.3052  -75.5242 N.am      10 UNK        -0.7319 
     21 O         -75.9013   32.4623  -73.9517 O.2       10 UNK        -0.5018 
     22 N         -72.9009   30.4107  -73.6167 N.am      10 UNK        -0.4509 
     23 C         -71.8553   31.1197  -74.0584 C.2       10 UNK         0.4899 
     24 O         -71.8480   32.3470  -74.1582 O.2       10 UNK        -0.4839 
     25 CA        -70.5921   30.3351  -74.4650 C.3       9 UNK         0.0222 
     26 CB        -69.7070   30.0341  -73.2392 C.3       9 UNK        -0.1966 
     27 N         -70.8616   29.1275  -75.2604 N.am      9 UNK        -0.4218 
     28 C         -71.4746   27.9949  -74.8885 C.2       9 UNK         0.5020 
     29 O         -71.8605   27.7555  -73.7426 O.2       9 UNK        -0.5274 
     30 CA        -71.7734   26.9892  -76.0110 C.3       8 UNK         0.0270 
     31 CB        -71.2387   25.5913  -75.6591 C.3       8 UNK        -0.1976 
     32 N         -73.2117   26.9111  -76.2801 N.am      8 UNK        -0.4313 
     33 C         -73.9765   27.9334  -76.6998 C.2       8 UNK         0.5041 
     34 O         -73.5348   29.0633  -76.9204 O.2       8 UNK        -0.5577 
     35 CA        -75.4854   27.6706  -76.8901 C.3       7 UNK         0.0284 
     36 CB        -76.1315   28.5989  -77.9397 C.3       7 UNK        -0.1958 
     37 N         -75.8185   26.2716  -77.1666 N.am      7 UNK        -0.4454 
     38 C         -75.3998   25.5043  -78.1865 C.2       7 UNK         0.5089 
     39 O         -74.7217   25.9167  -79.1279 O.2       7 UNK        -0.5125 
     40 CA        -75.7975   24.0120  -78.1183 C.3       6 UNK         0.0408 
     41 CB        -74.7743   23.0976  -78.8254 C.3       6 UNK        -0.1791 
     42 N         -76.0591   23.5461  -76.7440 N.am      6 UNK        -0.4762 
     43 C         -75.1785   23.5637  -75.7283 C.2       6 UNK         0.5007 
     44 O         -74.0118   23.9339  -75.8635 O.2       6 UNK        -0.5032 
     45 CA        -75.6865   23.1613  -74.3314 C.3       5 UNK         0.0783 
     46 C46       -74.8542   23.7850  -73.1730 C.3       11 UNK        -0.0857 
     47 S47       -75.0481   25.5979  -73.0227 S.3       11 UNK        -0.2512 
     48 C48       -75.4452   25.7763  -71.2554 C.3       11 UNK         0.0225 
     49 N         -77.1268   23.4052  -74.1820 N.am      5 UNK        -0.4615 
     50 C         -77.9160   22.6731  -73.3874 C.2       4 UNK         0.5053 
     51 O         -77.5485   21.6489  -72.8110 O.2       4 UNK        -0.5105 
     52 CA        -79.3471   23.1789  -73.1734 C.3       4 UNK         0.0263 
     53 CB        -79.3453   24.4517  -72.3140 C.3       4 UNK        -0.1981 
     54 N         -80.0335   23.4414  -74.4376 N.am      4 UNK        -0.4224 
     55 C         -80.7520   22.5304  -75.1092 C.2       3 UNK         0.4895 
     56 O         -80.8778   21.3593  -74.7495 O.2       3 UNK        -0.5091 
     57 CA        -81.4830   22.9963  -76.3813 C.3       3 UNK         0.0250 
     58 CB        -82.9828   23.1847  -76.0990 C.3       3 UNK        -0.1996 
     59 N         -80.9402   24.2390  -76.9349 N.am      3 UNK        -0.4254 
     60 C         -79.8445   24.2966  -77.7043 C.2       2 UNK         0.5004 
     61 O         -79.1943   23.3075  -78.0398 O.2       2 UNK        -0.5226 
     62 CA        -79.3703   25.6919  -78.1482 C.3       2 UNK         0.0269 
     63 CB        -80.0218   26.0843  -79.4828 C.3       2 UNK        -0.1926 
     64 N         -79.6200   26.7406  -77.1572 N.am      2 UNK        -0.4687 
     65 C         -79.1200   26.7635  -75.9145 C.2       1 UNK         0.5165 
     66 O         -78.3369   25.9139  -75.4726 O.2       1 UNK        -0.5079 
     67 H67       -83.5696   26.7137  -73.1460 H         1 UNK         0.0900 
     68 H68       -82.6520   25.2081  -73.0647 H         1 UNK         0.0900 
     69 H69       -82.1334   26.6125  -72.1271 H         1 UNK         0.0900 
     70 H70       -80.3133   27.5335  -73.0424 H         1 UNK         0.2959 
     71 H71       -80.1881   28.6065  -75.6121 H         1 UNK         0.1079 
     72 H72       -77.8331   29.0993  -75.1427 H         1 UNK         0.0837 
     73 H73       -77.7880   27.9886  -73.8170 H         1 UNK         0.0837 
     74 H74       -79.6700   28.5068  -71.5594 H         1 UNK         0.0685 
     75 H75       -79.3744   30.0961  -70.9171 H         1 UNK         0.0685 
     76 H76       -77.8404   26.8883  -71.7838 H         1 UNK         0.1434 
     77 H77       -74.0370   27.8126  -70.0516 H         1 UNK         0.1329 
     78 H78       -77.0525   30.8520  -70.3730 H         1 UNK         0.1335 
     79 H79       -75.0746   31.3015  -69.0876 H         1 UNK         0.0680 
     80 H80       -74.1039   29.9611  -68.5351 H         1 UNK         0.0680 
     81 H81       -75.0352   32.1106  -71.4928 H         1 UNK         0.1032 
     82 H82       -73.5250   32.7352  -72.0827 H         1 UNK         0.1032 
     83 H83       -74.7700   30.0561  -72.8716 H         1 UNK         0.0461 
     84 H84       -75.4277   31.7676  -76.2233 H         1 UNK         0.3453 
     85 H85       -74.1936   30.6041  -75.8066 H         1 UNK         0.3453 
     86 H86       -72.7819   29.4031  -73.5562 H         1 UNK         0.2984 
     87 H87       -70.0188   30.9898  -75.1234 H         1 UNK         0.0554 
     88 H88       -69.4208   30.9572  -72.7335 H         1 UNK         0.0847 
     89 H89       -68.7884   29.5230  -73.5270 H         1 UNK         0.0847 
     90 H90       -70.2213   29.4140  -72.5042 H         1 UNK         0.0847 
     91 H91       -70.6595   29.2277  -76.2461 H         1 UNK         0.3141 
     92 H92       -71.2810   27.3180  -76.9284 H         1 UNK         0.0743 
     93 H93       -70.1670   25.6209  -75.4589 H         1 UNK         0.0784 
     94 H94       -71.3982   24.8881  -76.4769 H         1 UNK         0.0784 
     95 H95       -71.7268   25.1859  -74.7713 H         1 UNK         0.0784 
     96 H96       -73.6482   26.0124  -76.1033 H         1 UNK         0.3213 
     97 H97       -75.9373   27.8962  -75.9240 H         1 UNK         0.0855 
     98 H98       -75.6719   28.4776  -78.9209 H         1 UNK         0.0814 
     99 H99       -76.0226   29.6466  -77.6586 H         1 UNK         0.0814 
    100 H100      -77.1985   28.4030  -78.0425 H         1 UNK         0.0814 
    101 H101      -76.3961   25.8261  -76.4633 H         1 UNK         0.3105 
    102 H102      -76.7345   23.9197  -78.6652 H         1 UNK         0.0547 
    103 H103      -75.0662   22.0498  -78.7594 H         1 UNK         0.0837 
    104 H104      -73.7755   23.1962  -78.3992 H         1 UNK         0.0837 
    105 H105      -74.6976   23.3440  -79.8850 H         1 UNK         0.0837 
    106 H106      -76.9991   23.2174  -76.5635 H         1 UNK         0.3020 
    107 H107      -75.5199   22.0820  -74.2985 H         1 UNK         0.1245 
    108 H108      -73.7924   23.5612  -73.2917 H         1 UNK         0.0781 
    109 H109      -75.1401   23.3123  -72.2325 H         1 UNK         0.0781 
    110 H110      -74.5726   25.5082  -70.6580 H         1 UNK         0.0836 
    111 H111      -76.2393   25.0792  -70.9834 H         1 UNK         0.0836 
    112 H112      -77.4886   24.2574  -74.5982 H         1 UNK         0.3022 
    113 H113      -79.8891   22.4099  -72.6180 H         1 UNK         0.0747 
    114 H114      -80.3542   24.7183  -72.0028 H         1 UNK         0.0793 
    115 H115      -78.7558   24.3145  -71.4062 H         1 UNK         0.0793 
    116 H116      -78.9234   25.2947  -72.8583 H         1 UNK         0.0793 
    117 H117      -79.9266   24.3636  -74.8361 H         1 UNK         0.3047 
    118 H118      -81.3785   22.2036  -77.1256 H         1 UNK         0.0822 
    119 H119      -83.5241   23.4659  -77.0024 H         1 UNK         0.0807 
    120 H120      -83.1610   23.9552  -75.3484 H         1 UNK         0.0807 
    121 H121      -83.4298   22.2609  -75.7291 H         1 UNK         0.0807 
    122 H122      -81.4032   25.1028  -76.6651 H         1 UNK         0.2946 
    123 H123      -78.2950   25.6385  -78.3058 H         1 UNK         0.1144 
    124 H124      -79.6237   27.0280  -79.8565 H         1 UNK         0.0793 
    125 H125      -81.1037   26.1880  -79.3899 H         1 UNK         0.0793 
    126 H126      -79.8310   25.3295  -80.2472 H         1 UNK         0.0793 
    127 H127      -80.2933   27.4474  -77.4180 H         1 UNK         0.2896 
@<TRIPOS>BOND
     1    1    2 1    
     2    1   67 1    
     3    1   68 1    
     4    1   69 1    
     5    2    3 2    
     6    2    4 am   BACKBONE|DICT|INTERRES
     7    4    5 1    
     8    4   70 1    
     9    5    6 1    
    10    5   65 1    
    11    5   71 1    
    12    6    7 1    
    13    6   72 1    
    14    6   73 1    
    15    7    8 1    
    16    8    9 1    
    17    8   74 1    
    18    8   75 1    
    19    9   10 ar   
    20    9   14 ar   
    21   10   11 ar   
    22   10   76 1    
    23   11   12 ar   
    24   11   48 1    
    25   12   13 ar   
    26   12   77 1    
    27   13   14 ar   
    28   13   15 1    
    29   14   78 1    
    30   15   16 1    
    31   15   79 1    
    32   15   80 1    
    33   16   17 1    
    34   17   18 1    
    35   17   81 1    
    36   17   82 1    
    37   18   19 1    
    38   18   22 1    
    39   18   83 1    
    40   19   20 am   BACKBONE|DICT|INTERRES
    41   19   21 2    
    42   20   84 1    
    43   20   85 1    
    44   22   23 am   BACKBONE|DICT|INTERRES
    45   22   86 1    
    46   23   24 2    
    47   23   25 1    
    48   25   26 1    
    49   25   27 1    
    50   25   87 1    
    51   26   88 1    
    52   26   89 1    
    53   26   90 1    
    54   27   28 am   BACKBONE|DICT|INTERRES
    55   27   91 1    
    56   28   29 2    
    57   28   30 1    
    58   30   31 1    
    59   30   32 1    
    60   30   92 1    
    61   31   93 1    
    62   31   94 1    
    63   31   95 1    
    64   32   33 am   BACKBONE|DICT|INTERRES
    65   32   96 1    
    66   33   34 2    
    67   33   35 1    
    68   35   36 1    
    69   35   37 1    
    70   35   97 1    
    71   36   98 1    
    72   36   99 1    
    73   36  100 1    
    74   37   38 am   BACKBONE|DICT|INTERRES
    75   37  101 1    
    76   38   39 2    
    77   38   40 1    
    78   40   41 1    
    79   40   42 1    
    80   40  102 1    
    81   41  103 1    
    82   41  104 1    
    83   41  105 1    
    84   42   43 am   BACKBONE|DICT|INTERRES
    85   42  106 1    
    86   43   44 2    
    87   43   45 1    
    88   45   46 1    
    89   45   49 1    
    90   45  107 1    
    91   46   47 1    
    92   46  108 1    
    93   46  109 1    
    94   47   48 1    
    95   48  110 1    
    96   48  111 1    
    97   49   50 am   BACKBONE|DICT|INTERRES
    98   49  112 1    
    99   50   51 2    
   100   50   52 1    
   101   52   53 1    
   102   52   54 1    
   103   52  113 1    
   104   53  114 1    
   105   53  115 1    
   106   53  116 1    
   107   54   55 am   BACKBONE|DICT|INTERRES
   108   54  117 1    
   109   55   56 2    
   110   55   57 1    
   111   57   58 1    
   112   57   59 1    
   113   57  118 1    
   114   58  119 1    
   115   58  120 1    
   116   58  121 1    
   117   59   60 am   BACKBONE|DICT|INTERRES
   118   59  122 1    
   119   60   61 2    
   120   60   62 1    
   121   62   63 1    
   122   62   64 1    
   123   62  123 1    
   124   63  124 1    
   125   63  125 1    
   126   63  126 1    
   127   64   65 am   BACKBONE|DICT|INTERRES
   128   64  127 1    
   129   65   66 2    
@<TRIPOS>SUBSTRUCTURE
     1 UNK         1 GROUP             0       ****    0 ROOT    
