@<TRIPOS>MOLECULE
3R135
127   129    1
SMALL
USER_CHARGES


@<TRIPOS>ATOM
      1 CA        -76.8004   24.9021  -72.9282 C.3       0 UNK        -0.1998 
      2 C         -78.0061   24.4918  -72.0985 C.2       0 UNK         0.4909 
      3 O         -77.9402   23.4917  -71.3825 O.2       0 UNK        -0.5240 
      4 N         -79.1034   25.2500  -72.1853 N.am      1 UNK        -0.4739 
      5 CA        -80.3709   24.9640  -71.5206 C.3       1 UNK         0.0864 
      6 C6        -80.4247   25.5215  -70.0698 C.3       11 UNK        -0.0881 
      7 S7        -80.7532   27.3122  -69.8792 S.3       11 UNK        -0.2682 
      8 C8        -79.0770   28.0304  -69.7780 C.3       11 UNK         0.0289 
      9 C9        -78.4104   28.2842  -71.1301 C.ar      11 UNK        -0.0687 
     10 C10       -79.1442   28.7207  -72.2409 C.ar      11 UNK        -0.0823 
     11 C11       -78.5116   28.9915  -73.4583 C.ar      11 UNK        -0.0830 
     12 C12       -77.1262   28.8400  -73.5565 C.ar      11 UNK        -0.1021 
     13 C13       -76.3796   28.4010  -72.4605 C.ar      11 UNK        -0.0753 
     14 C14       -77.0262   28.1264  -71.2519 C.ar      11 UNK        -0.0933 
     15 C15       -74.8768   28.2044  -72.5860 C.3       11 UNK         0.0166 
     16 S16       -73.9505   29.6522  -71.9879 S.3       11 UNK        -0.2615 
     17 C17       -74.3075   30.8780  -73.2969 C.3       11 UNK        -0.0865 
     18 CA        -73.1042   31.7895  -73.6527 C.3       10 UNK         0.0862 
     19 C         -72.8157   32.8550  -72.5540 C.2       10 UNK         0.5551 
     20 N         -71.6180   32.9162  -71.9840 N.am      10 UNK        -0.7319 
     21 O         -73.6907   33.6534  -72.2278 O.2       10 UNK        -0.5018 
     22 N         -71.9364   30.9988  -74.0733 N.am      10 UNK        -0.4509 
     23 C         -71.0010   31.4080  -74.9392 C.2       10 UNK         0.4899 
     24 O         -71.0268   32.5028  -75.5026 O.2       10 UNK        -0.4839 
     25 CA        -69.8246   30.4532  -75.2282 C.3       9 UNK         0.0222 
     26 CB        -68.5300   30.9959  -74.5990 C.3       9 UNK        -0.1966 
     27 N         -70.0251   29.0688  -74.7817 N.am      9 UNK        -0.4218 
     28 C         -70.8968   28.2030  -75.3157 C.2       9 UNK         0.5020 
     29 O         -71.6686   28.4833  -76.2359 O.2       9 UNK        -0.5274 
     30 CA        -70.8982   26.7900  -74.7161 C.3       8 UNK         0.0270 
     31 CB        -71.3267   26.7868  -73.2372 C.3       8 UNK        -0.1976 
     32 N         -71.8051   25.9463  -75.4885 N.am      8 UNK        -0.4313 
     33 C         -71.6260   24.6472  -75.7518 C.2       8 UNK         0.5041 
     34 O         -70.6877   23.9873  -75.3011 O.2       8 UNK        -0.5577 
     35 CA        -72.6545   23.9471  -76.6638 C.3       7 UNK         0.0284 
     36 CB        -73.4970   22.9509  -75.8497 C.3       7 UNK        -0.1958 
     37 N         -73.5499   24.8586  -77.3874 N.am      7 UNK        -0.4454 
     38 C         -73.1680   25.6799  -78.3788 C.2       7 UNK         0.5089 
     39 O         -72.0125   25.7293  -78.8015 O.2       7 UNK        -0.5125 
     40 CA        -74.2298   26.5967  -79.0232 C.3       6 UNK         0.0408 
     41 CB        -74.4319   26.2302  -80.5033 C.3       6 UNK        -0.1791 
     42 N         -75.5343   26.5844  -78.3559 N.am      6 UNK        -0.4762 
     43 C         -75.8064   27.1217  -77.1577 C.2       6 UNK         0.5007 
     44 O         -74.9785   27.7250  -76.4765 O.2       6 UNK        -0.5032 
     45 CA        -77.2345   26.9184  -76.6058 C.3       5 UNK         0.0783 
     46 C46       -78.0942   28.1802  -76.8525 C.3       11 UNK        -0.0857 
     47 S47       -79.6333   28.1593  -75.8732 S.3       11 UNK        -0.2512 
     48 C48       -79.3256   29.4785  -74.6511 C.3       11 UNK         0.0225 
     49 N         -77.8937   25.7018  -77.1064 N.am      5 UNK        -0.4615 
     50 C         -77.4357   24.4526  -76.9444 C.2       4 UNK         0.5053 
     51 O         -76.3830   24.1934  -76.3614 O.2       4 UNK        -0.5105 
     52 CA        -78.2676   23.3219  -77.5803 C.3       4 UNK         0.0263 
     53 CB        -77.8287   21.9186  -77.1073 C.3       4 UNK        -0.1981 
     54 N         -79.7179   23.5047  -77.4250 N.am      4 UNK        -0.4224 
     55 C         -80.4073   23.5236  -76.2751 C.2       3 UNK         0.4895 
     56 O         -79.9016   23.3967  -75.1560 O.2       3 UNK        -0.5091 
     57 CA        -81.9285   23.6879  -76.4056 C.3       3 UNK         0.0250 
     58 CB        -82.5886   22.4191  -76.9764 C.3       3 UNK        -0.1996 
     59 N         -82.4660   23.9622  -75.0799 N.am      3 UNK        -0.4254 
     60 C         -83.5296   24.7165  -74.7859 C.2       2 UNK         0.5004 
     61 O         -84.2837   25.1971  -75.6331 O.2       2 UNK        -0.5226 
     62 CA        -83.7998   24.9880  -73.2904 C.3       2 UNK         0.0269 
     63 CB        -84.9938   24.1529  -72.7987 C.3       2 UNK        -0.1926 
     64 N         -82.6447   24.7322  -72.4169 N.am      2 UNK        -0.4687 
     65 C         -81.5086   25.4440  -72.4386 C.2       1 UNK         0.5165 
     66 O         -81.3381   26.4257  -73.1651 O.2       1 UNK        -0.5079 
     67 H67       -75.9423   25.0856  -72.2827 H         1 UNK         0.0900 
     68 H68       -76.9978   25.8072  -73.4972 H         1 UNK         0.0900 
     69 H69       -76.5402   24.1098  -73.6296 H         1 UNK         0.0900 
     70 H70       -79.1362   26.0593  -72.7944 H         1 UNK         0.2959 
     71 H71       -80.4668   23.8772  -71.4597 H         1 UNK         0.1079 
     72 H72       -81.2200   25.0051  -69.5300 H         1 UNK         0.0837 
     73 H73       -79.5101   25.2626  -69.5343 H         1 UNK         0.0837 
     74 H74       -79.1490   28.9861  -69.2577 H         1 UNK         0.0685 
     75 H75       -78.4527   27.3897  -69.1535 H         1 UNK         0.0685 
     76 H76       -80.2144   28.8526  -72.1599 H         1 UNK         0.1434 
     77 H77       -76.6247   29.0601  -74.4876 H         1 UNK         0.1329 
     78 H78       -76.4448   27.7975  -70.4013 H         1 UNK         0.1335 
     79 H79       -74.5753   27.3320  -72.0045 H         1 UNK         0.0680 
     80 H80       -74.6020   27.9893  -73.6202 H         1 UNK         0.0680 
     81 H81       -75.1744   31.4702  -72.9973 H         1 UNK         0.1032 
     82 H82       -74.6146   30.3506  -74.2009 H         1 UNK         0.1032 
     83 H83       -73.4209   32.3726  -74.5197 H         1 UNK         0.0461 
     84 H84       -71.4398   33.6141  -71.2791 H         1 UNK         0.3453 
     85 H85       -70.8958   32.2664  -72.2481 H         1 UNK         0.3453 
     86 H86       -71.8406   30.0931  -73.6395 H         1 UNK         0.2984 
     87 H87       -69.6908   30.4348  -76.3118 H         1 UNK         0.0554 
     88 H88       -68.5877   31.0205  -73.5101 H         1 UNK         0.0847 
     89 H89       -68.3265   32.0135  -74.9362 H         1 UNK         0.0847 
     90 H90       -67.6676   30.3898  -74.8770 H         1 UNK         0.0847 
     91 H91       -69.4301   28.7505  -74.0298 H         1 UNK         0.3141 
     92 H92       -69.8803   26.4026  -74.7984 H         1 UNK         0.0743 
     93 H93       -70.6489   27.3768  -72.6197 H         1 UNK         0.0784 
     94 H94       -72.3262   27.1982  -73.1114 H         1 UNK         0.0784 
     95 H95       -71.3306   25.7755  -72.8299 H         1 UNK         0.0784 
     96 H96       -72.5481   26.4501  -75.9597 H         1 UNK         0.3213 
     97 H97       -72.0871   23.3815  -77.4060 H         1 UNK         0.0855 
     98 H98       -72.8631   22.2181  -75.3487 H         1 UNK         0.0814 
     99 H99       -74.1871   22.3980  -76.4872 H         1 UNK         0.0814 
    100 H100      -74.0823   23.4553  -75.0797 H         1 UNK         0.0814 
    101 H101      -74.5232   24.8540  -77.1003 H         1 UNK         0.3105 
    102 H102      -73.8390   27.6154  -78.9761 H         1 UNK         0.0547 
    103 H103      -73.4899   26.2782  -81.0515 H         1 UNK         0.0837 
    104 H104      -75.1216   26.9175  -80.9934 H         1 UNK         0.0837 
    105 H105      -74.8235   25.2188  -80.6190 H         1 UNK         0.0837 
    106 H106      -76.2800   26.0997  -78.8342 H         1 UNK         0.3020 
    107 H107      -77.1179   26.7911  -75.5299 H         1 UNK         0.1245 
    108 H108      -78.3596   28.2595  -77.9083 H         1 UNK         0.0781 
    109 H109      -77.5374   29.0905  -76.6233 H         1 UNK         0.0781 
    110 H110      -80.2917   29.8547  -74.3109 H         1 UNK         0.0836 
    111 H111      -78.8298   30.3272  -75.1242 H         1 UNK         0.0836 
    112 H112      -78.7755   25.8372  -77.5786 H         1 UNK         0.3022 
    113 H113      -78.0695   23.3762  -78.6517 H         1 UNK         0.0747 
    114 H114      -78.4197   21.1357  -77.5823 H         1 UNK         0.0793 
    115 H115      -76.7836   21.7314  -77.3576 H         1 UNK         0.0793 
    116 H116      -77.9261   21.8051  -76.0271 H         1 UNK         0.0793 
    117 H117      -80.2339   23.6166  -78.2874 H         1 UNK         0.3047 
    118 H118      -82.1261   24.5386  -77.0616 H         1 UNK         0.0822 
    119 H119      -83.6702   22.5348  -77.0498 H         1 UNK         0.0807 
    120 H120      -82.3881   21.5470  -76.3525 H         1 UNK         0.0807 
    121 H121      -82.2207   22.1961  -77.9784 H         1 UNK         0.0807 
    122 H122      -81.8594   23.6617  -74.3274 H         1 UNK         0.2946 
    123 H123      -84.0594   26.0456  -73.2028 H         1 UNK         0.1144 
    124 H124      -85.8802   24.3437  -73.4056 H         1 UNK         0.0793 
    125 H125      -85.2520   24.3964  -71.7679 H         1 UNK         0.0793 
    126 H126      -84.7874   23.0831  -72.8517 H         1 UNK         0.0793 
    127 H127      -82.7206   23.9435  -71.7899 H         1 UNK         0.2896 
@<TRIPOS>BOND
     1    1    2 1    
     2    1   67 1    
     3    1   68 1    
     4    1   69 1    
     5    2    3 2    
     6    2    4 am   BACKBONE|DICT|INTERRES
     7    4    5 1    
     8    4   70 1    
     9    5    6 1    
    10    5   65 1    
    11    5   71 1    
    12    6    7 1    
    13    6   72 1    
    14    6   73 1    
    15    7    8 1    
    16    8    9 1    
    17    8   74 1    
    18    8   75 1    
    19    9   10 ar   
    20    9   14 ar   
    21   10   11 ar   
    22   10   76 1    
    23   11   12 ar   
    24   11   48 1    
    25   12   13 ar   
    26   12   77 1    
    27   13   14 ar   
    28   13   15 1    
    29   14   78 1    
    30   15   16 1    
    31   15   79 1    
    32   15   80 1    
    33   16   17 1    
    34   17   18 1    
    35   17   81 1    
    36   17   82 1    
    37   18   19 1    
    38   18   22 1    
    39   18   83 1    
    40   19   20 am   BACKBONE|DICT|INTERRES
    41   19   21 2    
    42   20   84 1    
    43   20   85 1    
    44   22   23 am   BACKBONE|DICT|INTERRES
    45   22   86 1    
    46   23   24 2    
    47   23   25 1    
    48   25   26 1    
    49   25   27 1    
    50   25   87 1    
    51   26   88 1    
    52   26   89 1    
    53   26   90 1    
    54   27   28 am   BACKBONE|DICT|INTERRES
    55   27   91 1    
    56   28   29 2    
    57   28   30 1    
    58   30   31 1    
    59   30   32 1    
    60   30   92 1    
    61   31   93 1    
    62   31   94 1    
    63   31   95 1    
    64   32   33 am   BACKBONE|DICT|INTERRES
    65   32   96 1    
    66   33   34 2    
    67   33   35 1    
    68   35   36 1    
    69   35   37 1    
    70   35   97 1    
    71   36   98 1    
    72   36   99 1    
    73   36  100 1    
    74   37   38 am   BACKBONE|DICT|INTERRES
    75   37  101 1    
    76   38   39 2    
    77   38   40 1    
    78   40   41 1    
    79   40   42 1    
    80   40  102 1    
    81   41  103 1    
    82   41  104 1    
    83   41  105 1    
    84   42   43 am   BACKBONE|DICT|INTERRES
    85   42  106 1    
    86   43   44 2    
    87   43   45 1    
    88   45   46 1    
    89   45   49 1    
    90   45  107 1    
    91   46   47 1    
    92   46  108 1    
    93   46  109 1    
    94   47   48 1    
    95   48  110 1    
    96   48  111 1    
    97   49   50 am   BACKBONE|DICT|INTERRES
    98   49  112 1    
    99   50   51 2    
   100   50   52 1    
   101   52   53 1    
   102   52   54 1    
   103   52  113 1    
   104   53  114 1    
   105   53  115 1    
   106   53  116 1    
   107   54   55 am   BACKBONE|DICT|INTERRES
   108   54  117 1    
   109   55   56 2    
   110   55   57 1    
   111   57   58 1    
   112   57   59 1    
   113   57  118 1    
   114   58  119 1    
   115   58  120 1    
   116   58  121 1    
   117   59   60 am   BACKBONE|DICT|INTERRES
   118   59  122 1    
   119   60   61 2    
   120   60   62 1    
   121   62   63 1    
   122   62   64 1    
   123   62  123 1    
   124   63  124 1    
   125   63  125 1    
   126   63  126 1    
   127   64   65 am   BACKBONE|DICT|INTERRES
   128   64  127 1    
   129   65   66 2    
@<TRIPOS>SUBSTRUCTURE
     1 UNK         1 GROUP             0       ****    0 ROOT    
