@<TRIPOS>MOLECULE
3R135
127   129    1
SMALL
USER_CHARGES


@<TRIPOS>ATOM
      1 CA        -81.0776   22.8069  -72.4804 C.3       0 UNK        -0.1998 
      2 C         -81.8880   24.0914  -72.5652 C.2       0 UNK         0.4909 
      3 O         -83.0812   24.0867  -72.2610 O.2       0 UNK        -0.5240 
      4 N         -81.2488   25.1870  -72.9880 N.am      1 UNK        -0.4739 
      5 CA        -81.8683   26.5032  -73.1834 C.3       1 UNK         0.0864 
      6 C6        -80.8710   27.6476  -72.8708 C.3       11 UNK        -0.0881 
      7 S7        -80.3831   27.6783  -71.1183 S.3       11 UNK        -0.2682 
      8 C8        -79.2716   29.1197  -71.1074 C.3       11 UNK         0.0289 
      9 C9        -77.9018   28.7919  -71.6850 C.ar      11 UNK        -0.0687 
     10 C10       -77.0365   27.9546  -70.9758 C.ar      11 UNK        -0.0823 
     11 C11       -75.7599   27.6705  -71.4667 C.ar      11 UNK        -0.0830 
     12 C12       -75.3462   28.2374  -72.6737 C.ar      11 UNK        -0.1021 
     13 C13       -76.1942   29.0908  -73.3851 C.ar      11 UNK        -0.0753 
     14 C14       -77.4788   29.3525  -72.8956 C.ar      11 UNK        -0.0933 
     15 C15       -75.7030   29.7420  -74.6700 C.3       11 UNK         0.0166 
     16 S16       -75.4196   31.5336  -74.4831 S.3       11 UNK        -0.2615 
     17 C17       -74.1766   31.6150  -73.1444 C.3       11 UNK        -0.0865 
     18 CA        -72.7875   32.1414  -73.6106 C.3       10 UNK         0.0862 
     19 C         -71.8406   32.4579  -72.4104 C.2       10 UNK         0.5551 
     20 N         -70.5307   32.2801  -72.5359 N.am      10 UNK        -0.7319 
     21 O         -72.2916   32.9054  -71.3585 O.2       10 UNK        -0.5018 
     22 N         -72.1691   31.3276  -74.6763 N.am      10 UNK        -0.4509 
     23 C         -71.8138   30.0396  -74.5861 C.2       10 UNK         0.4899 
     24 O         -72.0139   29.3257  -73.6024 O.2       10 UNK        -0.4839 
     25 CA        -71.0686   29.4543  -75.7952 C.3       9 UNK         0.0222 
     26 CB        -69.6440   29.0238  -75.4060 C.3       9 UNK        -0.1966 
     27 N         -71.7894   28.3056  -76.3392 N.am      9 UNK        -0.4218 
     28 C         -72.8938   28.3918  -77.0920 C.2       9 UNK         0.5020 
     29 O         -73.3848   29.4633  -77.4493 O.2       9 UNK        -0.5274 
     30 CA        -73.5564   27.0793  -77.5489 C.3       8 UNK         0.0270 
     31 CB        -73.6224   27.0022  -79.0842 C.3       8 UNK        -0.1976 
     32 N         -72.8858   25.8745  -77.0462 N.am      8 UNK        -0.4313 
     33 C         -73.1964   25.2565  -75.9015 C.2       8 UNK         0.5041 
     34 O         -74.0558   25.6567  -75.1129 O.2       8 UNK        -0.5577 
     35 CA        -72.4282   23.9642  -75.5824 C.3       7 UNK         0.0284 
     36 CB        -71.4856   24.1761  -74.3869 C.3       7 UNK        -0.1958 
     37 N         -73.3876   22.9109  -75.2610 N.am      7 UNK        -0.4454 
     38 C         -74.1263   22.2514  -76.1623 C.2       7 UNK         0.5089 
     39 O         -73.9041   22.2727  -77.3731 O.2       7 UNK        -0.5125 
     40 CA        -75.3712   21.5088  -75.6390 C.3       6 UNK         0.0408 
     41 CB        -75.0195   20.1260  -75.0559 C.3       6 UNK        -0.1791 
     42 N         -76.1616   22.3430  -74.7185 N.am      6 UNK        -0.4762 
     43 C         -75.8591   22.7218  -73.4658 C.2       6 UNK         0.5007 
     44 O         -74.9386   22.2261  -72.8150 O.2       6 UNK        -0.5032 
     45 CA        -76.6430   23.9336  -72.9204 C.3       5 UNK         0.0783 
     46 C46       -76.1601   24.4168  -71.5246 C.3       11 UNK        -0.0857 
     47 S47       -74.5003   25.1923  -71.5149 S.3       11 UNK        -0.2512 
     48 C48       -74.8152   26.7764  -70.6782 C.3       11 UNK         0.0225 
     49 N         -76.5840   24.9872  -73.9393 N.am      5 UNK        -0.4615 
     50 C         -77.6209   25.4554  -74.6355 C.2       4 UNK         0.5053 
     51 O         -78.7991   25.1768  -74.3971 O.2       4 UNK        -0.5105 
     52 CA        -77.2748   26.2968  -75.8683 C.3       4 UNK         0.0263 
     53 CB        -76.8780   25.3655  -77.0348 C.3       4 UNK        -0.1981 
     54 N         -78.4416   27.0861  -76.2453 N.am      4 UNK        -0.4224 
     55 C         -78.4764   28.0688  -77.1550 C.2       3 UNK         0.4895 
     56 O         -77.4757   28.4929  -77.7345 O.2       3 UNK        -0.5091 
     57 CA        -79.8573   28.6882  -77.4702 C.3       3 UNK         0.0250 
     58 CB        -79.9565   29.2088  -78.9200 C.3       3 UNK        -0.1996 
     59 N         -80.9882   27.8038  -77.1526 N.am      3 UNK        -0.4254 
     60 C         -81.2567   26.5911  -77.6636 C.2       2 UNK         0.5004 
     61 O         -80.6245   26.0759  -78.5867 O.2       2 UNK        -0.5226 
     62 CA        -82.3753   25.7993  -76.9568 C.3       2 UNK         0.0269 
     63 CB        -82.5377   24.3716  -77.5118 C.3       2 UNK        -0.1926 
     64 N         -82.1067   25.7178  -75.5170 N.am      2 UNK        -0.4687 
     65 C         -82.4117   26.6648  -74.6178 C.2       1 UNK         0.5165 
     66 O         -83.0417   27.6814  -74.9128 O.2       1 UNK        -0.5079 
     67 H67       -80.9562   22.5079  -71.4397 H         1 UNK         0.0900 
     68 H68       -80.0879   22.9228  -72.9211 H         1 UNK         0.0900 
     69 H69       -81.5894   22.0035  -73.0096 H         1 UNK         0.0900 
     70 H70       -80.2727   25.1268  -73.2720 H         1 UNK         0.2959 
     71 H71       -82.7255   26.6061  -72.5140 H         1 UNK         0.1079 
     72 H72       -81.3100   28.6203  -73.1027 H         1 UNK         0.0837 
     73 H73       -79.9725   27.5597  -73.4844 H         1 UNK         0.0837 
     74 H74       -79.7370   29.9478  -71.6443 H         1 UNK         0.0685 
     75 H75       -79.1486   29.4573  -70.0773 H         1 UNK         0.0685 
     76 H76       -77.3615   27.5277  -70.0368 H         1 UNK         0.1434 
     77 H77       -74.3545   28.0229  -73.0503 H         1 UNK         0.1329 
     78 H78       -78.1337   30.0156  -73.4437 H         1 UNK         0.1335 
     79 H79       -76.4377   29.5841  -75.4590 H         1 UNK         0.0680 
     80 H80       -74.7815   29.2702  -75.0106 H         1 UNK         0.0680 
     81 H81       -74.0681   30.6479  -72.6559 H         1 UNK         0.1032 
     82 H82       -74.5942   32.2751  -72.3822 H         1 UNK         0.1032 
     83 H83       -72.9616   33.1146  -74.0708 H         1 UNK         0.0461 
     84 H84       -69.9259   32.4988  -71.7598 H         1 UNK         0.3453 
     85 H85       -70.1430   31.9307  -73.3968 H         1 UNK         0.3453 
     86 H86       -71.9676   31.8234  -75.5329 H         1 UNK         0.2984 
     87 H87       -70.9872   30.2161  -76.5739 H         1 UNK         0.0554 
     88 H88       -69.0957   28.6399  -76.2665 H         1 UNK         0.0847 
     89 H89       -69.6491   28.2488  -74.6381 H         1 UNK         0.0847 
     90 H90       -69.0758   29.8672  -75.0118 H         1 UNK         0.0847 
     91 H91       -71.4790   27.3910  -76.0487 H         1 UNK         0.3141 
     92 H92       -74.5806   27.1076  -77.1740 H         1 UNK         0.0743 
     93 H93       -72.6286   27.0068  -79.5335 H         1 UNK         0.0784 
     94 H94       -74.1381   26.0996  -79.4130 H         1 UNK         0.0784 
     95 H95       -74.1712   27.8509  -79.4952 H         1 UNK         0.0784 
     96 H96       -72.1710   25.4770  -77.6402 H         1 UNK         0.3213 
     97 H97       -71.8360   23.6581  -76.4476 H         1 UNK         0.0855 
     98 H98       -72.0301   24.4893  -73.4945 H         1 UNK         0.0814 
     99 H99       -70.7453   24.9470  -74.6039 H         1 UNK         0.0814 
    100 H100      -70.9420   23.2631  -74.1437 H         1 UNK         0.0814 
    101 H101      -73.6792   22.8447  -74.2914 H         1 UNK         0.3105 
    102 H102      -76.0200   21.3377  -76.4997 H         1 UNK         0.0547 
    103 H103      -74.5858   19.4853  -75.8246 H         1 UNK         0.0837 
    104 H104      -74.2911   20.1883  -74.2473 H         1 UNK         0.0837 
    105 H105      -75.9050   19.6191  -74.6731 H         1 UNK         0.0837 
    106 H106      -76.9313   22.8279  -75.1588 H         1 UNK         0.3020 
    107 H107      -77.6715   23.5875  -72.8007 H         1 UNK         0.1245 
    108 H108      -76.1535   23.5873  -70.8154 H         1 UNK         0.0781 
    109 H109      -76.8907   25.1220  -71.1287 H         1 UNK         0.0781 
    110 H110      -73.8655   27.2957  -70.5415 H         1 UNK         0.0836 
    111 H111      -75.2031   26.5811  -69.6773 H         1 UNK         0.0836 
    112 H112      -75.6430   25.2608  -74.2262 H         1 UNK         0.3022 
    113 H113      -76.4516   26.9685  -75.6188 H         1 UNK         0.0747 
    114 H114      -76.0350   24.7284  -76.7690 H         1 UNK         0.0793 
    115 H115      -77.7028   24.7120  -77.3222 H         1 UNK         0.0793 
    116 H116      -76.5819   25.9289  -77.9192 H         1 UNK         0.0793 
    117 H117      -79.2973   26.7889  -75.7964 H         1 UNK         0.3047 
    118 H118      -79.9527   29.5487  -76.8062 H         1 UNK         0.0822 
    119 H119      -80.9331   29.6504  -79.1179 H         1 UNK         0.0807 
    120 H120      -79.7933   28.4133  -79.6477 H         1 UNK         0.0807 
    121 H121      -79.2096   29.9803  -79.1115 H         1 UNK         0.0807 
    122 H122      -81.5935   28.1209  -76.4029 H         1 UNK         0.2946 
    123 H123      -83.3122   26.3353  -77.1273 H         1 UNK         0.1144 
    124 H124      -83.3499   23.8428  -77.0127 H         1 UNK         0.0793 
    125 H125      -81.6277   23.7832  -77.3873 H         1 UNK         0.0793 
    126 H126      -82.7719   24.3906  -78.5770 H         1 UNK         0.0793 
    127 H127      -81.5530   24.9334  -75.2018 H         1 UNK         0.2896 
@<TRIPOS>BOND
     1    1    2 1    
     2    1   67 1    
     3    1   68 1    
     4    1   69 1    
     5    2    3 2    
     6    2    4 am   BACKBONE|DICT|INTERRES
     7    4    5 1    
     8    4   70 1    
     9    5    6 1    
    10    5   65 1    
    11    5   71 1    
    12    6    7 1    
    13    6   72 1    
    14    6   73 1    
    15    7    8 1    
    16    8    9 1    
    17    8   74 1    
    18    8   75 1    
    19    9   10 ar   
    20    9   14 ar   
    21   10   11 ar   
    22   10   76 1    
    23   11   12 ar   
    24   11   48 1    
    25   12   13 ar   
    26   12   77 1    
    27   13   14 ar   
    28   13   15 1    
    29   14   78 1    
    30   15   16 1    
    31   15   79 1    
    32   15   80 1    
    33   16   17 1    
    34   17   18 1    
    35   17   81 1    
    36   17   82 1    
    37   18   19 1    
    38   18   22 1    
    39   18   83 1    
    40   19   20 am   BACKBONE|DICT|INTERRES
    41   19   21 2    
    42   20   84 1    
    43   20   85 1    
    44   22   23 am   BACKBONE|DICT|INTERRES
    45   22   86 1    
    46   23   24 2    
    47   23   25 1    
    48   25   26 1    
    49   25   27 1    
    50   25   87 1    
    51   26   88 1    
    52   26   89 1    
    53   26   90 1    
    54   27   28 am   BACKBONE|DICT|INTERRES
    55   27   91 1    
    56   28   29 2    
    57   28   30 1    
    58   30   31 1    
    59   30   32 1    
    60   30   92 1    
    61   31   93 1    
    62   31   94 1    
    63   31   95 1    
    64   32   33 am   BACKBONE|DICT|INTERRES
    65   32   96 1    
    66   33   34 2    
    67   33   35 1    
    68   35   36 1    
    69   35   37 1    
    70   35   97 1    
    71   36   98 1    
    72   36   99 1    
    73   36  100 1    
    74   37   38 am   BACKBONE|DICT|INTERRES
    75   37  101 1    
    76   38   39 2    
    77   38   40 1    
    78   40   41 1    
    79   40   42 1    
    80   40  102 1    
    81   41  103 1    
    82   41  104 1    
    83   41  105 1    
    84   42   43 am   BACKBONE|DICT|INTERRES
    85   42  106 1    
    86   43   44 2    
    87   43   45 1    
    88   45   46 1    
    89   45   49 1    
    90   45  107 1    
    91   46   47 1    
    92   46  108 1    
    93   46  109 1    
    94   47   48 1    
    95   48  110 1    
    96   48  111 1    
    97   49   50 am   BACKBONE|DICT|INTERRES
    98   49  112 1    
    99   50   51 2    
   100   50   52 1    
   101   52   53 1    
   102   52   54 1    
   103   52  113 1    
   104   53  114 1    
   105   53  115 1    
   106   53  116 1    
   107   54   55 am   BACKBONE|DICT|INTERRES
   108   54  117 1    
   109   55   56 2    
   110   55   57 1    
   111   57   58 1    
   112   57   59 1    
   113   57  118 1    
   114   58  119 1    
   115   58  120 1    
   116   58  121 1    
   117   59   60 am   BACKBONE|DICT|INTERRES
   118   59  122 1    
   119   60   61 2    
   120   60   62 1    
   121   62   63 1    
   122   62   64 1    
   123   62  123 1    
   124   63  124 1    
   125   63  125 1    
   126   63  126 1    
   127   64   65 am   BACKBONE|DICT|INTERRES
   128   64  127 1    
   129   65   66 2    
@<TRIPOS>SUBSTRUCTURE
     1 UNK         1 GROUP             0       ****    0 ROOT    
