@<TRIPOS>MOLECULE
3R135
127   129    1
SMALL
USER_CHARGES


@<TRIPOS>ATOM
      1 CA        -83.9256   26.8638  -70.5038 C.3       0 UNK        -0.1998 
      2 C         -83.7049   27.2189  -71.9665 C.2       0 UNK         0.4909 
      3 O         -84.6010   27.0204  -72.7872 O.2       0 UNK        -0.5240 
      4 N         -82.5183   27.7460  -72.2955 N.am      1 UNK        -0.4739 
      5 CA        -82.1166   28.1299  -73.6556 C.3       1 UNK         0.0864 
      6 C6        -80.8617   29.0361  -73.6531 C.3       11 UNK        -0.0881 
      7 S7        -81.1625   30.6598  -72.8671 S.3       11 UNK        -0.2682 
      8 C8        -80.6795   30.4034  -71.1250 C.3       11 UNK         0.0289 
      9 C9        -79.2298   29.9665  -70.9793 C.ar      11 UNK        -0.0687 
     10 C10       -78.9226   28.6374  -70.6677 C.ar      11 UNK        -0.0823 
     11 C11       -77.5920   28.2191  -70.5885 C.ar      11 UNK        -0.0830 
     12 C12       -76.5679   29.1511  -70.7691 C.ar      11 UNK        -0.1021 
     13 C13       -76.8612   30.4800  -71.0808 C.ar      11 UNK        -0.0753 
     14 C14       -78.1948   30.8858  -71.1802 C.ar      11 UNK        -0.0933 
     15 C15       -75.7274   31.4568  -71.3394 C.3       11 UNK         0.0166 
     16 S16       -75.1195   31.3013  -73.0515 S.3       11 UNK        -0.2615 
     17 C17       -73.3112   31.4272  -72.8105 C.3       11 UNK        -0.0865 
     18 CA        -72.5510   30.0854  -73.0010 C.3       10 UNK         0.0862 
     19 C         -72.9256   28.9982  -71.9561 C.2       10 UNK         0.5551 
     20 N         -73.3722   27.8110  -72.3510 N.am      10 UNK        -0.7319 
     21 O         -72.7804   29.2279  -70.7583 O.2       10 UNK        -0.5018 
     22 N         -72.5661   29.6110  -74.3926 N.am      10 UNK        -0.4509 
     23 C         -71.7068   30.0145  -75.3345 C.2       10 UNK         0.4899 
     24 O         -70.8864   30.9205  -75.1739 O.2       10 UNK        -0.4839 
     25 CA        -71.7605   29.2479  -76.6681 C.3       9 UNK         0.0222 
     26 CB        -70.6380   29.6490  -77.6480 C.3       9 UNK        -0.1966 
     27 N         -71.7821   27.7938  -76.4713 N.am      9 UNK        -0.4218 
     28 C         -70.8756   27.0264  -75.8434 C.2       9 UNK         0.5020 
     29 O         -69.8291   27.4550  -75.3551 O.2       9 UNK        -0.5274 
     30 CA        -71.1835   25.5194  -75.7232 C.3       8 UNK         0.0270 
     31 CB        -71.5634   25.1593  -74.2776 C.3       8 UNK        -0.1976 
     32 N         -72.2466   25.0622  -76.6227 N.am      8 UNK        -0.4313 
     33 C         -72.1156   24.9334  -77.9504 C.2       8 UNK         0.5041 
     34 O         -71.0518   25.0832  -78.5525 O.2       8 UNK        -0.5577 
     35 CA        -73.3966   24.6321  -78.7456 C.3       7 UNK         0.0284 
     36 CB        -73.6852   23.1227  -78.7550 C.3       7 UNK        -0.1958 
     37 N         -74.5658   25.3617  -78.2414 N.am      7 UNK        -0.4454 
     38 C         -74.6956   26.6969  -78.2443 C.2       7 UNK         0.5089 
     39 O         -73.8546   27.4634  -78.7108 O.2       7 UNK        -0.5125 
     40 CA        -75.9459   27.2858  -77.5715 C.3       6 UNK         0.0408 
     41 CB        -77.1600   27.2191  -78.5107 C.3       6 UNK        -0.1791 
     42 N         -76.2648   26.6269  -76.3058 N.am      6 UNK        -0.4762 
     43 C         -75.5173   26.6845  -75.1927 C.2       6 UNK         0.5007 
     44 O         -74.4782   27.3408  -75.0784 O.2       6 UNK        -0.5032 
     45 CA        -76.0138   25.8335  -74.0097 C.3       5 UNK         0.0783 
     46 C46       -77.1143   26.6041  -73.2448 C.3       11 UNK        -0.0857 
     47 S47       -77.7760   25.7115  -71.7924 S.3       11 UNK        -0.2512 
     48 C48       -77.2502   26.7493  -70.3830 C.3       11 UNK         0.0225 
     49 N         -76.4525   24.5094  -74.4604 N.am      5 UNK        -0.4615 
     50 C         -75.6440   23.5788  -74.9870 C.2       4 UNK         0.5053 
     51 O         -74.4308   23.7288  -75.1311 O.2       4 UNK        -0.5105 
     52 CA        -76.3070   22.2797  -75.4756 C.3       4 UNK         0.0263 
     53 CB        -76.5073   21.3039  -74.3053 C.3       4 UNK        -0.1981 
     54 N         -77.5892   22.5128  -76.1452 N.am      4 UNK        -0.4224 
     55 C         -77.7381   23.2049  -77.2846 C.2       3 UNK         0.4895 
     56 O         -76.8003   23.6696  -77.9291 O.2       3 UNK        -0.5091 
     57 CA        -79.1757   23.4687  -77.7637 C.3       3 UNK         0.0250 
     58 CB        -79.6448   22.3462  -78.7025 C.3       3 UNK        -0.1996 
     59 N         -80.1389   23.6311  -76.6694 N.am      3 UNK        -0.4254 
     60 C         -80.0740   24.5862  -75.7310 C.2       2 UNK         0.5004 
     61 O         -79.1798   25.4347  -75.6778 O.2       2 UNK        -0.5226 
     62 CA        -81.1503   24.5210  -74.6343 C.3       2 UNK         0.0269 
     63 CB        -80.7556   23.4869  -73.5660 C.3       2 UNK        -0.1926 
     64 N         -81.3823   25.8067  -73.9743 N.am      2 UNK        -0.4687 
     65 C         -81.9000   26.8972  -74.5592 C.2       1 UNK         0.5165 
     66 O         -82.2379   26.9460  -75.7433 O.2       1 UNK        -0.5079 
     67 H67       -83.0570   27.1004  -69.8896 H         1 UNK         0.0900 
     68 H68       -84.7792   27.4144  -70.1093 H         1 UNK         0.0900 
     69 H69       -84.1315   25.7985  -70.4038 H         1 UNK         0.0900 
     70 H70       -81.8287   27.8971  -71.5762 H         1 UNK         0.2959 
     71 H71       -82.9402   28.6968  -74.0965 H         1 UNK         0.1079 
     72 H72       -80.5491   29.2424  -74.6789 H         1 UNK         0.0837 
     73 H73       -80.0133   28.5326  -73.1890 H         1 UNK         0.0837 
     74 H74       -80.8253   31.3394  -70.5838 H         1 UNK         0.0685 
     75 H75       -81.3524   29.6834  -70.6590 H         1 UNK         0.0685 
     76 H76       -79.7135   27.9137  -70.5303 H         1 UNK         0.1434 
     77 H77       -75.5367   28.8336  -70.7124 H         1 UNK         0.1329 
     78 H78       -78.4294   31.9101  -71.4363 H         1 UNK         0.1335 
     79 H79       -74.9266   31.2619  -70.6247 H         1 UNK         0.0680 
     80 H80       -76.0525   32.4835  -71.1646 H         1 UNK         0.0680 
     81 H81       -72.9314   32.1635  -73.5202 H         1 UNK         0.1032 
     82 H82       -73.0900   31.8471  -71.8281 H         1 UNK         0.1032 
     83 H83       -71.5062   30.2938  -72.7613 H         1 UNK         0.0461 
     84 H84       -73.5685   27.1168  -71.6490 H         1 UNK         0.3453 
     85 H85       -73.5441   27.6115  -73.3262 H         1 UNK         0.3453 
     86 H86       -73.2308   28.8781  -74.6148 H         1 UNK         0.2984 
     87 H87       -72.7129   29.5082  -77.1321 H         1 UNK         0.0554 
     88 H88       -70.6835   30.7138  -77.8796 H         1 UNK         0.0847 
     89 H89       -70.7259   29.1087  -78.5907 H         1 UNK         0.0847 
     90 H90       -69.6486   29.4474  -77.2364 H         1 UNK         0.0847 
     91 H91       -72.6073   27.3326  -76.8323 H         1 UNK         0.3141 
     92 H92       -70.2671   24.9824  -75.9768 H         1 UNK         0.0743 
     93 H93       -72.5039   25.6232  -73.9819 H         1 UNK         0.0784 
     94 H94       -71.6725   24.0816  -74.1547 H         1 UNK         0.0784 
     95 H95       -70.7988   25.4904  -73.5735 H         1 UNK         0.0784 
     96 H96       -73.1398   24.8332  -76.1946 H         1 UNK         0.3213 
     97 H97       -73.2278   24.9527  -79.7758 H         1 UNK         0.0855 
     98 H98       -73.8931   22.7453  -77.7535 H         1 UNK         0.0814 
     99 H99       -72.8329   22.5643  -79.1445 H         1 UNK         0.0814 
    100 H100      -74.5422   22.8869  -79.3860 H         1 UNK         0.0814 
    101 H101      -75.3454   24.7968  -77.9088 H         1 UNK         0.3105 
    102 H102      -75.7439   28.3369  -77.3545 H         1 UNK         0.0547 
    103 H103      -76.9619   27.7548  -79.4400 H         1 UNK         0.0837 
    104 H104      -77.4135   26.1927  -78.7755 H         1 UNK         0.0837 
    105 H105      -78.0399   27.6739  -78.0553 H         1 UNK         0.0837 
    106 H106      -77.1150   26.0747  -76.2773 H         1 UNK         0.3020 
    107 H107      -75.1682   25.6848  -73.3352 H         1 UNK         0.1245 
    108 H108      -77.9591   26.8282  -73.8973 H         1 UNK         0.0781 
    109 H109      -76.7220   27.5747  -72.9449 H         1 UNK         0.0781 
    110 H110      -76.1775   26.6177  -70.2324 H         1 UNK         0.0836 
    111 H111      -77.7336   26.3885  -69.4742 H         1 UNK         0.0836 
    112 H112      -77.4466   24.3368  -74.4194 H         1 UNK         0.3022 
    113 H113      -75.6328   21.8144  -76.1975 H         1 UNK         0.0747 
    114 H114      -76.9004   20.3470  -74.6491 H         1 UNK         0.0793 
    115 H115      -75.5608   21.1011  -73.8019 H         1 UNK         0.0793 
    116 H116      -77.1950   21.7017  -73.5577 H         1 UNK         0.0793 
    117 H117      -78.4166   22.1592  -75.6886 H         1 UNK         0.3047 
    118 H118      -79.1627   24.4031  -78.3287 H         1 UNK         0.0822 
    119 H119      -80.6240   22.5670  -79.1278 H         1 UNK         0.0807 
    120 H120      -79.7093   21.3868  -78.1877 H         1 UNK         0.0807 
    121 H121      -78.9528   22.2221  -79.5370 H         1 UNK         0.0807 
    122 H122      -80.8977   22.9650  -76.6362 H         1 UNK         0.2946 
    123 H123      -82.0912   24.2131  -75.0963 H         1 UNK         0.1144 
    124 H124      -81.5236   23.3978  -72.7973 H         1 UNK         0.0793 
    125 H125      -79.8192   23.7526  -73.0737 H         1 UNK         0.0793 
    126 H126      -80.6246   22.4958  -74.0022 H         1 UNK         0.0793 
    127 H127      -81.1214   25.8679  -73.0018 H         1 UNK         0.2896 
@<TRIPOS>BOND
     1    1    2 1    
     2    1   67 1    
     3    1   68 1    
     4    1   69 1    
     5    2    3 2    
     6    2    4 am   BACKBONE|DICT|INTERRES
     7    4    5 1    
     8    4   70 1    
     9    5    6 1    
    10    5   65 1    
    11    5   71 1    
    12    6    7 1    
    13    6   72 1    
    14    6   73 1    
    15    7    8 1    
    16    8    9 1    
    17    8   74 1    
    18    8   75 1    
    19    9   10 ar   
    20    9   14 ar   
    21   10   11 ar   
    22   10   76 1    
    23   11   12 ar   
    24   11   48 1    
    25   12   13 ar   
    26   12   77 1    
    27   13   14 ar   
    28   13   15 1    
    29   14   78 1    
    30   15   16 1    
    31   15   79 1    
    32   15   80 1    
    33   16   17 1    
    34   17   18 1    
    35   17   81 1    
    36   17   82 1    
    37   18   19 1    
    38   18   22 1    
    39   18   83 1    
    40   19   20 am   BACKBONE|DICT|INTERRES
    41   19   21 2    
    42   20   84 1    
    43   20   85 1    
    44   22   23 am   BACKBONE|DICT|INTERRES
    45   22   86 1    
    46   23   24 2    
    47   23   25 1    
    48   25   26 1    
    49   25   27 1    
    50   25   87 1    
    51   26   88 1    
    52   26   89 1    
    53   26   90 1    
    54   27   28 am   BACKBONE|DICT|INTERRES
    55   27   91 1    
    56   28   29 2    
    57   28   30 1    
    58   30   31 1    
    59   30   32 1    
    60   30   92 1    
    61   31   93 1    
    62   31   94 1    
    63   31   95 1    
    64   32   33 am   BACKBONE|DICT|INTERRES
    65   32   96 1    
    66   33   34 2    
    67   33   35 1    
    68   35   36 1    
    69   35   37 1    
    70   35   97 1    
    71   36   98 1    
    72   36   99 1    
    73   36  100 1    
    74   37   38 am   BACKBONE|DICT|INTERRES
    75   37  101 1    
    76   38   39 2    
    77   38   40 1    
    78   40   41 1    
    79   40   42 1    
    80   40  102 1    
    81   41  103 1    
    82   41  104 1    
    83   41  105 1    
    84   42   43 am   BACKBONE|DICT|INTERRES
    85   42  106 1    
    86   43   44 2    
    87   43   45 1    
    88   45   46 1    
    89   45   49 1    
    90   45  107 1    
    91   46   47 1    
    92   46  108 1    
    93   46  109 1    
    94   47   48 1    
    95   48  110 1    
    96   48  111 1    
    97   49   50 am   BACKBONE|DICT|INTERRES
    98   49  112 1    
    99   50   51 2    
   100   50   52 1    
   101   52   53 1    
   102   52   54 1    
   103   52  113 1    
   104   53  114 1    
   105   53  115 1    
   106   53  116 1    
   107   54   55 am   BACKBONE|DICT|INTERRES
   108   54  117 1    
   109   55   56 2    
   110   55   57 1    
   111   57   58 1    
   112   57   59 1    
   113   57  118 1    
   114   58  119 1    
   115   58  120 1    
   116   58  121 1    
   117   59   60 am   BACKBONE|DICT|INTERRES
   118   59  122 1    
   119   60   61 2    
   120   60   62 1    
   121   62   63 1    
   122   62   64 1    
   123   62  123 1    
   124   63  124 1    
   125   63  125 1    
   126   63  126 1    
   127   64   65 am   BACKBONE|DICT|INTERRES
   128   64  127 1    
   129   65   66 2    
@<TRIPOS>SUBSTRUCTURE
     1 UNK         1 GROUP             0       ****    0 ROOT    
