@<TRIPOS>MOLECULE
3R135
127   129    1
SMALL
USER_CHARGES


@<TRIPOS>ATOM
      1 CA        -83.2727   26.5099  -71.3364 C.3       0 UNK        -0.1998 
      2 C         -82.2388   26.7230  -72.4312 C.2       0 UNK         0.4909 
      3 O         -81.2499   25.9932  -72.4813 O.2       0 UNK        -0.5240 
      4 N         -82.4637   27.7215  -73.2990 N.am      1 UNK        -0.4739 
      5 CA        -81.6050   28.1027  -74.4331 C.3       1 UNK         0.0864 
      6 C6        -80.2269   28.6751  -73.9980 C.3       11 UNK        -0.0881 
      7 S7        -80.4057   30.2548  -73.0967 S.3       11 UNK        -0.2682 
      8 C8        -80.1275   29.7684  -71.3631 C.3       11 UNK         0.0289 
      9 C9        -78.6665   29.4457  -71.0896 C.ar      11 UNK        -0.0687 
     10 C10       -78.2512   28.1190  -70.9490 C.ar      11 UNK        -0.0823 
     11 C11       -76.9016   27.8128  -70.7333 C.ar      11 UNK        -0.0830 
     12 C12       -75.9759   28.8547  -70.6180 C.ar      11 UNK        -0.1021 
     13 C13       -76.3825   30.1868  -70.7381 C.ar      11 UNK        -0.0753 
     14 C14       -77.7291   30.4761  -70.9750 C.ar      11 UNK        -0.0933 
     15 C15       -75.3738   31.3161  -70.5898 C.3       11 UNK         0.0166 
     16 S16       -74.8745   32.0247  -72.1930 S.3       11 UNK        -0.2615 
     17 C17       -73.8332   30.7094  -72.9142 C.3       11 UNK        -0.0865 
     18 CA        -72.3206   30.9240  -72.6319 C.3       10 UNK         0.0862 
     19 C         -71.8883   30.3208  -71.2739 C.2       10 UNK         0.5551 
     20 N         -71.6630   31.1471  -70.2624 N.am      10 UNK        -0.7319 
     21 O         -71.7762   29.1048  -71.1304 O.2       10 UNK        -0.5018 
     22 N         -71.4886   30.3464  -73.6901 N.am      10 UNK        -0.4509 
     23 C         -71.0208   30.9956  -74.7625 C.2       10 UNK         0.4899 
     24 O         -71.2807   32.1706  -75.0222 O.2       10 UNK        -0.4839 
     25 CA        -70.0920   30.2086  -75.7076 C.3       9 UNK         0.0222 
     26 CB        -68.6199   30.5207  -75.3915 C.3       9 UNK        -0.1966 
     27 N         -70.3020   28.7577  -75.6529 N.am      9 UNK        -0.4218 
     28 C         -71.3680   28.1312  -76.1675 C.2       9 UNK         0.5020 
     29 O         -72.2622   28.7041  -76.7952 O.2       9 UNK        -0.5274 
     30 CA        -71.4536   26.6217  -75.8969 C.3       8 UNK         0.0270 
     31 CB        -71.9173   26.3578  -74.4524 C.3       8 UNK        -0.1976 
     32 N         -72.3966   25.9906  -76.8200 N.am      8 UNK        -0.4313 
     33 C         -72.0592   25.4223  -77.9860 C.2       8 UNK         0.5041 
     34 O         -70.8962   25.3373  -78.3854 O.2       8 UNK        -0.5577 
     35 CA        -73.1832   24.8300  -78.8586 C.3       7 UNK         0.0284 
     36 CB        -73.0342   23.3027  -78.9715 C.3       7 UNK        -0.1958 
     37 N         -74.5186   25.1371  -78.3426 N.am      7 UNK        -0.4454 
     38 C         -75.2572   26.1908  -78.7204 C.2       7 UNK         0.5089 
     39 O         -74.9218   26.9764  -79.6073 O.2       7 UNK        -0.5125 
     40 CA        -76.5921   26.4241  -77.9845 C.3       6 UNK         0.0408 
     41 CB        -77.7706   25.9254  -78.8350 C.3       6 UNK        -0.1791 
     42 N         -76.6580   25.8015  -76.6590 N.am      6 UNK        -0.4762 
     43 C         -75.8811   26.1402  -75.6175 C.2       6 UNK         0.5007 
     44 O         -75.0400   27.0353  -75.6675 O.2       6 UNK        -0.5032 
     45 CA        -76.0277   25.3256  -74.3149 C.3       5 UNK         0.0783 
     46 C46       -77.0443   26.0368  -73.3940 C.3       11 UNK        -0.0857 
     47 S47       -77.2559   25.2122  -71.7784 S.3       11 UNK        -0.2512 
     48 C48       -76.4166   26.3668  -70.6368 C.3       11 UNK         0.0225 
     49 N         -76.4033   23.9274  -74.5405 N.am      5 UNK        -0.4615 
     50 C         -75.8162   23.0478  -75.3629 C.2       4 UNK         0.5053 
     51 O         -74.7710   23.2727  -75.9724 O.2       4 UNK        -0.5105 
     52 CA        -76.5678   21.7223  -75.6043 C.3       4 UNK         0.0263 
     53 CB        -75.9380   20.5927  -74.7745 C.3       4 UNK        -0.1981 
     54 N         -78.0121   21.7859  -75.3236 N.am      4 UNK        -0.4224 
     55 C         -78.8743   22.6500  -75.8821 C.2       3 UNK         0.4895 
     56 O         -78.5498   23.4685  -76.7477 O.2       3 UNK        -0.5091 
     57 CA        -80.3114   22.6438  -75.3408 C.3       3 UNK         0.0250 
     58 CB        -80.3541   22.7428  -73.8009 C.3       3 UNK        -0.1996 
     59 N         -81.0186   23.7822  -75.9170 N.am      3 UNK        -0.4254 
     60 C         -82.3356   23.9031  -76.0876 C.2       2 UNK         0.5004 
     61 O         -83.1543   23.0440  -75.7537 O.2       2 UNK        -0.5226 
     62 CA        -82.8070   25.2282  -76.7144 C.3       2 UNK         0.0269 
     63 CB        -84.2741   25.1718  -77.1801 C.3       2 UNK        -0.1926 
     64 N         -82.6533   26.3395  -75.7728 N.am      2 UNK        -0.4687 
     65 C         -81.5054   26.9715  -75.4838 C.2       1 UNK         0.5165 
     66 O         -80.4267   26.6925  -76.0120 O.2       1 UNK        -0.5079 
     67 H67       -83.6934   25.5074  -71.4094 H         1 UNK         0.0900 
     68 H68       -84.0906   27.2273  -71.4006 H         1 UNK         0.0900 
     69 H69       -82.8067   26.6136  -70.3570 H         1 UNK         0.0900 
     70 H70       -83.2951   28.2854  -73.1873 H         1 UNK         0.2959 
     71 H71       -82.1323   28.9054  -74.9515 H         1 UNK         0.1079 
     72 H72       -79.6710   27.9518  -73.4016 H         1 UNK         0.0837 
     73 H73       -79.6041   28.8823  -74.8702 H         1 UNK         0.0837 
     74 H74       -80.7680   28.9230  -71.1104 H         1 UNK         0.0685 
     75 H75       -80.4399   30.5888  -70.7155 H         1 UNK         0.0685 
     76 H76       -78.9781   27.3224  -71.0362 H         1 UNK         0.1434 
     77 H77       -74.9327   28.6298  -70.4393 H         1 UNK         0.1329 
     78 H78       -78.0471   31.5047  -71.0784 H         1 UNK         0.1335 
     79 H79       -75.8139   32.1096  -69.9839 H         1 UNK         0.0680 
     80 H80       -74.4944   30.9772  -70.0421 H         1 UNK         0.0680 
     81 H81       -74.1726   29.7213  -72.6002 H         1 UNK         0.1032 
     82 H82       -74.0135   30.7404  -73.9901 H         1 UNK         0.1032 
     83 H83       -72.1173   31.9968  -72.5993 H         1 UNK         0.0461 
     84 H84       -71.3844   30.7672  -69.3713 H         1 UNK         0.3453 
     85 H85       -71.7611   32.1444  -70.3733 H         1 UNK         0.3453 
     86 H86       -71.1970   29.3932  -73.5253 H         1 UNK         0.2984 
     87 H87       -70.2976   30.5459  -76.7259 H         1 UNK         0.0554 
     88 H88       -67.9488   30.0316  -76.0979 H         1 UNK         0.0847 
     89 H89       -68.3433   30.2001  -74.3862 H         1 UNK         0.0847 
     90 H90       -68.4265   31.5926  -75.4549 H         1 UNK         0.0847 
     91 H91       -69.6060   28.2144  -75.1615 H         1 UNK         0.3141 
     92 H92       -70.4613   26.1842  -76.0268 H         1 UNK         0.0743 
     93 H93       -71.1712   26.6953  -73.7321 H         1 UNK         0.0784 
     94 H94       -72.8462   26.8795  -74.2202 H         1 UNK         0.0784 
     95 H95       -72.0771   25.2941  -74.2744 H         1 UNK         0.0784 
     96 H96       -73.3776   26.1391  -76.6131 H         1 UNK         0.3213 
     97 H97       -73.0698   25.2516  -79.8597 H         1 UNK         0.0855 
     98 H98       -73.0809   22.8177  -77.9960 H         1 UNK         0.0814 
     99 H99       -72.0761   23.0364  -79.4198 H         1 UNK         0.0814 
    100 H100      -73.8147   22.8722  -79.5989 H         1 UNK         0.0814 
    101 H101      -74.8519   24.5465  -77.5868 H         1 UNK         0.3105 
    102 H102      -76.7047   27.5015  -77.8479 H         1 UNK         0.0547 
    103 H103      -77.7148   24.8502  -79.0090 H         1 UNK         0.0837 
    104 H104      -78.7254   26.1372  -78.3528 H         1 UNK         0.0837 
    105 H105      -77.7840   26.4141  -79.8101 H         1 UNK         0.0837 
    106 H106      -77.3176   25.0349  -76.5547 H         1 UNK         0.3020 
    107 H107      -75.0513   25.3227  -73.8259 H         1 UNK         0.1245 
    108 H108      -78.0270   26.0747  -73.8699 H         1 UNK         0.0781 
    109 H109      -76.7487   27.0764  -73.2453 H         1 UNK         0.0781 
    110 H110      -76.5616   26.0164  -69.6143 H         1 UNK         0.0836 
    111 H111      -75.3444   26.3136  -70.8326 H         1 UNK         0.0836 
    112 H112      -77.2439   23.6318  -74.0676 H         1 UNK         0.3022 
    113 H113      -76.4519   21.4784  -76.6624 H         1 UNK         0.0747 
    114 H114      -74.8703   20.5050  -74.9819 H         1 UNK         0.0793 
    115 H115      -76.3903   19.6283  -75.0068 H         1 UNK         0.0793 
    116 H116      -76.0483   20.7684  -73.7036 H         1 UNK         0.0793 
    117 H117      -78.3590   21.1446  -74.6246 H         1 UNK         0.3047 
    118 H118      -80.7895   21.7180  -75.6672 H         1 UNK         0.0822 
    119 H119      -79.8981   21.8747  -73.3248 H         1 UNK         0.0807 
    120 H120      -81.3800   22.7984  -73.4361 H         1 UNK         0.0807 
    121 H121      -79.8328   23.6315  -73.4410 H         1 UNK         0.0807 
    122 H122      -80.4164   24.5403  -76.2245 H         1 UNK         0.2946 
    123 H123      -82.1849   25.4170  -77.5929 H         1 UNK         0.1144 
    124 H124      -84.9593   25.0106  -76.3468 H         1 UNK         0.0793 
    125 H125      -84.4265   24.3575  -77.8899 H         1 UNK         0.0793 
    126 H126      -84.5667   26.0947  -77.6811 H         1 UNK         0.0793 
    127 H127      -83.4798   26.6056  -75.2573 H         1 UNK         0.2896 
@<TRIPOS>BOND
     1    1    2 1    
     2    1   67 1    
     3    1   68 1    
     4    1   69 1    
     5    2    3 2    
     6    2    4 am   BACKBONE|DICT|INTERRES
     7    4    5 1    
     8    4   70 1    
     9    5    6 1    
    10    5   65 1    
    11    5   71 1    
    12    6    7 1    
    13    6   72 1    
    14    6   73 1    
    15    7    8 1    
    16    8    9 1    
    17    8   74 1    
    18    8   75 1    
    19    9   10 ar   
    20    9   14 ar   
    21   10   11 ar   
    22   10   76 1    
    23   11   12 ar   
    24   11   48 1    
    25   12   13 ar   
    26   12   77 1    
    27   13   14 ar   
    28   13   15 1    
    29   14   78 1    
    30   15   16 1    
    31   15   79 1    
    32   15   80 1    
    33   16   17 1    
    34   17   18 1    
    35   17   81 1    
    36   17   82 1    
    37   18   19 1    
    38   18   22 1    
    39   18   83 1    
    40   19   20 am   BACKBONE|DICT|INTERRES
    41   19   21 2    
    42   20   84 1    
    43   20   85 1    
    44   22   23 am   BACKBONE|DICT|INTERRES
    45   22   86 1    
    46   23   24 2    
    47   23   25 1    
    48   25   26 1    
    49   25   27 1    
    50   25   87 1    
    51   26   88 1    
    52   26   89 1    
    53   26   90 1    
    54   27   28 am   BACKBONE|DICT|INTERRES
    55   27   91 1    
    56   28   29 2    
    57   28   30 1    
    58   30   31 1    
    59   30   32 1    
    60   30   92 1    
    61   31   93 1    
    62   31   94 1    
    63   31   95 1    
    64   32   33 am   BACKBONE|DICT|INTERRES
    65   32   96 1    
    66   33   34 2    
    67   33   35 1    
    68   35   36 1    
    69   35   37 1    
    70   35   97 1    
    71   36   98 1    
    72   36   99 1    
    73   36  100 1    
    74   37   38 am   BACKBONE|DICT|INTERRES
    75   37  101 1    
    76   38   39 2    
    77   38   40 1    
    78   40   41 1    
    79   40   42 1    
    80   40  102 1    
    81   41  103 1    
    82   41  104 1    
    83   41  105 1    
    84   42   43 am   BACKBONE|DICT|INTERRES
    85   42  106 1    
    86   43   44 2    
    87   43   45 1    
    88   45   46 1    
    89   45   49 1    
    90   45  107 1    
    91   46   47 1    
    92   46  108 1    
    93   46  109 1    
    94   47   48 1    
    95   48  110 1    
    96   48  111 1    
    97   49   50 am   BACKBONE|DICT|INTERRES
    98   49  112 1    
    99   50   51 2    
   100   50   52 1    
   101   52   53 1    
   102   52   54 1    
   103   52  113 1    
   104   53  114 1    
   105   53  115 1    
   106   53  116 1    
   107   54   55 am   BACKBONE|DICT|INTERRES
   108   54  117 1    
   109   55   56 2    
   110   55   57 1    
   111   57   58 1    
   112   57   59 1    
   113   57  118 1    
   114   58  119 1    
   115   58  120 1    
   116   58  121 1    
   117   59   60 am   BACKBONE|DICT|INTERRES
   118   59  122 1    
   119   60   61 2    
   120   60   62 1    
   121   62   63 1    
   122   62   64 1    
   123   62  123 1    
   124   63  124 1    
   125   63  125 1    
   126   63  126 1    
   127   64   65 am   BACKBONE|DICT|INTERRES
   128   64  127 1    
   129   65   66 2    
@<TRIPOS>SUBSTRUCTURE
     1 UNK         1 GROUP             0       ****    0 ROOT    
