@<TRIPOS>MOLECULE
3R135
127   129    1
SMALL
USER_CHARGES


@<TRIPOS>ATOM
      1 CA        -82.8930   25.6320  -72.1633 C.3       0 UNK        -0.1998 
      2 C         -82.7010   25.8950  -73.6485 C.2       0 UNK         0.4909 
      3 O         -83.3922   25.2938  -74.4718 O.2       0 UNK        -0.5240 
      4 N         -81.7695   26.7909  -74.0029 N.am      1 UNK        -0.4739 
      5 CA        -81.4395   27.1338  -75.3891 C.3       1 UNK         0.0864 
      6 C6        -80.5781   28.4209  -75.4908 C.3       11 UNK        -0.0881 
      7 S7        -78.8920   28.2829  -74.8051 S.3       11 UNK        -0.2682 
      8 C8        -79.0674   29.0550  -73.1709 C.3       11 UNK         0.0289 
      9 C9        -77.8137   28.7945  -72.3557 C.ar      11 UNK        -0.0687 
     10 C10       -77.6150   27.5414  -71.7723 C.ar      11 UNK        -0.0823 
     11 C11       -76.4272   27.2530  -71.0948 C.ar      11 UNK        -0.0830 
     12 C12       -75.4469   28.2432  -70.9719 C.ar      11 UNK        -0.1021 
     13 C13       -75.6439   29.5073  -71.5385 C.ar      11 UNK        -0.0753 
     14 C14       -76.8308   29.7782  -72.2267 C.ar      11 UNK        -0.0933 
     15 C15       -74.5740   30.5810  -71.4261 C.3       11 UNK         0.0166 
     16 S16       -73.7959   30.8998  -73.0386 S.3       11 UNK        -0.2615 
     17 C17       -72.6190   32.2267  -72.5966 C.3       11 UNK        -0.0865 
     18 CA        -71.1342   31.7978  -72.7182 C.3       10 UNK         0.0862 
     19 C         -70.7007   30.8347  -71.5718 C.2       10 UNK         0.5551 
     20 N         -70.2480   29.6168  -71.8470 N.am      10 UNK        -0.7319 
     21 O         -70.7677   31.2103  -70.4040 O.2       10 UNK        -0.5018 
     22 N         -70.8368   31.3260  -74.0767 N.am      10 UNK        -0.4509 
     23 C         -69.6229   31.2759  -74.6349 C.2       10 UNK         0.4899 
     24 O         -68.6085   31.7350  -74.1073 O.2       10 UNK        -0.4839 
     25 CA        -69.5372   30.5912  -76.0152 C.3       9 UNK         0.0222 
     26 CB        -68.1135   30.0894  -76.3365 C.3       9 UNK        -0.1966 
     27 N         -70.5148   29.5076  -76.2041 N.am      9 UNK        -0.4218 
     28 C         -70.6684   28.4037  -75.4592 C.2       9 UNK         0.5020 
     29 O         -70.0354   28.1826  -74.4247 O.2       9 UNK        -0.5274 
     30 CA        -71.7195   27.3883  -75.9517 C.3       8 UNK         0.0270 
     31 CB        -71.5937   26.0327  -75.2309 C.3       8 UNK        -0.1976 
     32 N         -73.0977   27.8706  -75.8170 N.am      8 UNK        -0.4313 
     33 C         -73.6666   28.8467  -76.5371 C.2       8 UNK         0.5041 
     34 O         -73.0666   29.4975  -77.3968 O.2       8 UNK        -0.5577 
     35 CA        -75.1590   29.1119  -76.2551 C.3       7 UNK         0.0284 
     36 CB        -75.7310   30.2816  -77.0821 C.3       7 UNK        -0.1958 
     37 N         -75.9873   27.9108  -76.4210 N.am      7 UNK        -0.4454 
     38 C         -76.1194   27.1387  -77.5124 C.2       7 UNK         0.5089 
     39 O         -75.5500   27.3484  -78.5846 O.2       7 UNK        -0.5125 
     40 CA        -77.0585   25.9206  -77.3643 C.3       6 UNK         0.0408 
     41 CB        -76.8937   24.8895  -78.5019 C.3       6 UNK        -0.1791 
     42 N         -76.9437   25.2761  -76.0479 N.am      6 UNK        -0.4762 
     43 C         -75.8384   24.7096  -75.5341 C.2       6 UNK         0.5007 
     44 O         -74.7886   24.5712  -76.1611 O.2       6 UNK        -0.5032 
     45 CA        -75.8698   24.2788  -74.0531 C.3       5 UNK         0.0783 
     46 C46       -75.1349   25.3493  -73.2091 C.3       11 UNK        -0.0857 
     47 S47       -74.9140   24.9092  -71.4473 S.3       11 UNK        -0.2512 
     48 C48       -76.1940   25.8534  -70.5423 C.3       11 UNK         0.0225 
     49 N         -77.2230   24.0117  -73.5546 N.am      5 UNK        -0.4615 
     50 C         -77.9664   22.9512  -73.8961 C.2       4 UNK         0.5053 
     51 O         -77.5992   22.0986  -74.7059 O.2       4 UNK        -0.5105 
     52 CA        -79.3330   22.7897  -73.2097 C.3       4 UNK         0.0263 
     53 CB        -79.6832   23.9149  -72.2145 C.3       4 UNK        -0.1981 
     54 N         -80.3672   22.7277  -74.2381 N.am      4 UNK        -0.4224 
     55 C         -81.1448   21.6686  -74.5022 C.2       3 UNK         0.4895 
     56 O         -81.0977   20.6126  -73.8691 O.2       3 UNK        -0.5091 
     57 CA        -82.1677   21.7931  -75.6499 C.3       3 UNK         0.0250 
     58 CB        -83.6026   21.8013  -75.0961 C.3       3 UNK        -0.1996 
     59 N         -81.9686   22.9868  -76.4759 N.am      3 UNK        -0.4254 
     60 C         -81.0654   23.0848  -77.4627 C.2       2 UNK         0.5004 
     61 O         -80.3690   22.1444  -77.8450 O.2       2 UNK        -0.5226 
     62 CA        -80.8878   24.4640  -78.1300 C.3       2 UNK         0.0269 
     63 CB        -81.6226   24.5072  -79.4795 C.3       2 UNK        -0.1926 
     64 N         -81.3177   25.6053  -77.3118 N.am      2 UNK        -0.4687 
     65 C         -80.8120   25.9227  -76.1122 C.2       1 UNK         0.5165 
     66 O         -79.9161   25.2769  -75.5604 O.2       1 UNK        -0.5079 
     67 H67       -82.9296   24.5596  -71.9741 H         1 UNK         0.0900 
     68 H68       -82.0851   26.0555  -71.5670 H         1 UNK         0.0900 
     69 H69       -83.8328   26.0678  -71.8255 H         1 UNK         0.0900 
     70 H70       -81.2040   27.2352  -73.2964 H         1 UNK         0.2959 
     71 H71       -82.3888   27.3534  -75.8832 H         1 UNK         0.1079 
     72 H72       -81.0948   29.2521  -75.0083 H         1 UNK         0.0837 
     73 H73       -80.4814   28.7134  -76.5380 H         1 UNK         0.0837 
     74 H74       -79.9358   28.6486  -72.6518 H         1 UNK         0.0685 
     75 H75       -79.2422   30.1256  -73.2892 H         1 UNK         0.0685 
     76 H76       -78.3743   26.7808  -71.8835 H         1 UNK         0.1434 
     77 H77       -74.5228   28.0193  -70.4563 H         1 UNK         0.1329 
     78 H78       -76.9742   30.7474  -72.6847 H         1 UNK         0.1335 
     79 H79       -73.8064   30.2899  -70.7070 H         1 UNK         0.0680 
     80 H80       -75.0246   31.5007  -71.0500 H         1 UNK         0.0680 
     81 H81       -72.8312   32.6066  -71.5953 H         1 UNK         0.1032 
     82 H82       -72.8057   33.0684  -73.2653 H         1 UNK         0.1032 
     83 H83       -70.5400   32.7008  -72.5646 H         1 UNK         0.0461 
     84 H84       -69.9687   29.0155  -71.0891 H         1 UNK         0.3453 
     85 H85       -70.1860   29.2795  -72.8026 H         1 UNK         0.3453 
     86 H86       -71.6120   30.9069  -74.5688 H         1 UNK         0.2984 
     87 H87       -69.7906   31.3584  -76.7480 H         1 UNK         0.0554 
     88 H88       -67.3954   30.9104  -76.3292 H         1 UNK         0.0847 
     89 H89       -68.0669   29.6313  -77.3244 H         1 UNK         0.0847 
     90 H90       -67.7722   29.3524  -75.6085 H         1 UNK         0.0847 
     91 H91       -71.1867   29.6335  -76.9593 H         1 UNK         0.3141 
     92 H92       -71.5262   27.2145  -77.0125 H         1 UNK         0.0743 
     93 H93       -70.5839   25.6319  -75.3287 H         1 UNK         0.0784 
     94 H94       -72.2722   25.2922  -75.6532 H         1 UNK         0.0784 
     95 H95       -71.8062   26.1189  -74.1646 H         1 UNK         0.0784 
     96 H96       -73.6665   27.3985  -75.1311 H         1 UNK         0.3213 
     97 H97       -75.2326   29.3915  -75.2030 H         1 UNK         0.0855 
     98 H98       -75.6813   30.0838  -78.1533 H         1 UNK         0.0814 
     99 H99       -75.1730   31.1997  -76.8939 H         1 UNK         0.0814 
    100 H100      -76.7720   30.4759  -76.8236 H         1 UNK         0.0814 
    101 H101      -76.5462   27.6566  -75.6171 H         1 UNK         0.3105 
    102 H102      -78.0736   26.3144  -77.4222 H         1 UNK         0.0547 
    103 H103      -77.5129   24.0082  -78.3370 H         1 UNK         0.0837 
    104 H104      -75.8607   24.5541  -78.5983 H         1 UNK         0.0837 
    105 H105      -77.1837   25.3196  -79.4611 H         1 UNK         0.0837 
    106 H106      -77.7835   25.3098  -75.4786 H         1 UNK         0.3020 
    107 H107      -75.3032   23.3468  -73.9871 H         1 UNK         0.1245 
    108 H108      -75.6182   26.3189  -73.3189 H         1 UNK         0.0781 
    109 H109      -74.1263   25.4927  -73.6001 H         1 UNK         0.0781 
    110 H110      -75.8971   25.9279  -69.4952 H         1 UNK         0.0836 
    111 H111      -77.1203   25.2789  -70.5463 H         1 UNK         0.0836 
    112 H112      -77.5881   24.6644  -72.8798 H         1 UNK         0.3022 
    113 H113      -79.2876   21.8524  -72.6517 H         1 UNK         0.0747 
    114 H114      -80.6422   23.7173  -71.7369 H         1 UNK         0.0793 
    115 H115      -78.9475   23.9813  -71.4130 H         1 UNK         0.0793 
    116 H116      -79.7515   24.8874  -72.7034 H         1 UNK         0.0793 
    117 H117      -80.4150   23.5392  -74.8474 H         1 UNK         0.3047 
    118 H118      -82.0556   20.9076  -76.2794 H         1 UNK         0.0822 
    119 H119      -84.3386   21.8590  -75.8981 H         1 UNK         0.0807 
    120 H120      -83.7718   22.6420  -74.4228 H         1 UNK         0.0807 
    121 H121      -83.8093   20.8895  -74.5339 H         1 UNK         0.0807 
    122 H122      -82.4943   23.8110  -76.2133 H         1 UNK         0.2946 
    123 H123      -79.8206   24.5846  -78.3201 H         1 UNK         0.1144 
    124 H124      -81.4187   25.4351  -80.0142 H         1 UNK         0.0793 
    125 H125      -82.7026   24.4200  -79.3538 H         1 UNK         0.0793 
    126 H126      -81.3027   23.6880  -80.1253 H         1 UNK         0.0793 
    127 H127      -82.0636   26.1706  -77.6923 H         1 UNK         0.2896 
@<TRIPOS>BOND
     1    1    2 1    
     2    1   67 1    
     3    1   68 1    
     4    1   69 1    
     5    2    3 2    
     6    2    4 am   BACKBONE|DICT|INTERRES
     7    4    5 1    
     8    4   70 1    
     9    5    6 1    
    10    5   65 1    
    11    5   71 1    
    12    6    7 1    
    13    6   72 1    
    14    6   73 1    
    15    7    8 1    
    16    8    9 1    
    17    8   74 1    
    18    8   75 1    
    19    9   10 ar   
    20    9   14 ar   
    21   10   11 ar   
    22   10   76 1    
    23   11   12 ar   
    24   11   48 1    
    25   12   13 ar   
    26   12   77 1    
    27   13   14 ar   
    28   13   15 1    
    29   14   78 1    
    30   15   16 1    
    31   15   79 1    
    32   15   80 1    
    33   16   17 1    
    34   17   18 1    
    35   17   81 1    
    36   17   82 1    
    37   18   19 1    
    38   18   22 1    
    39   18   83 1    
    40   19   20 am   BACKBONE|DICT|INTERRES
    41   19   21 2    
    42   20   84 1    
    43   20   85 1    
    44   22   23 am   BACKBONE|DICT|INTERRES
    45   22   86 1    
    46   23   24 2    
    47   23   25 1    
    48   25   26 1    
    49   25   27 1    
    50   25   87 1    
    51   26   88 1    
    52   26   89 1    
    53   26   90 1    
    54   27   28 am   BACKBONE|DICT|INTERRES
    55   27   91 1    
    56   28   29 2    
    57   28   30 1    
    58   30   31 1    
    59   30   32 1    
    60   30   92 1    
    61   31   93 1    
    62   31   94 1    
    63   31   95 1    
    64   32   33 am   BACKBONE|DICT|INTERRES
    65   32   96 1    
    66   33   34 2    
    67   33   35 1    
    68   35   36 1    
    69   35   37 1    
    70   35   97 1    
    71   36   98 1    
    72   36   99 1    
    73   36  100 1    
    74   37   38 am   BACKBONE|DICT|INTERRES
    75   37  101 1    
    76   38   39 2    
    77   38   40 1    
    78   40   41 1    
    79   40   42 1    
    80   40  102 1    
    81   41  103 1    
    82   41  104 1    
    83   41  105 1    
    84   42   43 am   BACKBONE|DICT|INTERRES
    85   42  106 1    
    86   43   44 2    
    87   43   45 1    
    88   45   46 1    
    89   45   49 1    
    90   45  107 1    
    91   46   47 1    
    92   46  108 1    
    93   46  109 1    
    94   47   48 1    
    95   48  110 1    
    96   48  111 1    
    97   49   50 am   BACKBONE|DICT|INTERRES
    98   49  112 1    
    99   50   51 2    
   100   50   52 1    
   101   52   53 1    
   102   52   54 1    
   103   52  113 1    
   104   53  114 1    
   105   53  115 1    
   106   53  116 1    
   107   54   55 am   BACKBONE|DICT|INTERRES
   108   54  117 1    
   109   55   56 2    
   110   55   57 1    
   111   57   58 1    
   112   57   59 1    
   113   57  118 1    
   114   58  119 1    
   115   58  120 1    
   116   58  121 1    
   117   59   60 am   BACKBONE|DICT|INTERRES
   118   59  122 1    
   119   60   61 2    
   120   60   62 1    
   121   62   63 1    
   122   62   64 1    
   123   62  123 1    
   124   63  124 1    
   125   63  125 1    
   126   63  126 1    
   127   64   65 am   BACKBONE|DICT|INTERRES
   128   64  127 1    
   129   65   66 2    
@<TRIPOS>SUBSTRUCTURE
     1 UNK         1 GROUP             0       ****    0 ROOT    
