@<TRIPOS>MOLECULE
3R135
127   129    1
SMALL
USER_CHARGES


@<TRIPOS>ATOM
      1 CA        -84.4496   28.9638  -75.6638 C.3       0 UNK        -0.1998 
      2 C         -83.0305   29.2023  -75.1696 C.2       0 UNK         0.4909 
      3 O         -82.4526   30.2532  -75.4507 O.2       0 UNK        -0.5240 
      4 N         -82.4701   28.2399  -74.4270 N.am      1 UNK        -0.4739 
      5 CA        -81.0950   28.2719  -73.9184 C.3       1 UNK         0.0864 
      6 C6        -80.8680   27.2126  -72.8175 C.3       11 UNK        -0.0881 
      7 S7        -81.8484   27.5300  -71.3084 S.3       11 UNK        -0.2682 
      8 C8        -80.7939   28.6893  -70.3604 C.3       11 UNK         0.0289 
      9 C9        -79.3450   28.2311  -70.2302 C.ar      11 UNK        -0.0687 
     10 C10       -79.0467   26.9317  -69.8078 C.ar      11 UNK        -0.0823 
     11 C11       -77.7277   26.4656  -69.8108 C.ar      11 UNK        -0.0830 
     12 C12       -76.6958   27.3418  -70.1586 C.ar      11 UNK        -0.1021 
     13 C13       -76.9746   28.6578  -70.5391 C.ar      11 UNK        -0.0753 
     14 C14       -78.3017   29.0950  -70.5801 C.ar      11 UNK        -0.0933 
     15 C15       -75.8408   29.5987  -70.9180 C.3       11 UNK         0.0166 
     16 S16       -75.6513   29.7131  -72.7231 S.3       11 UNK        -0.2615 
     17 C17       -73.9421   30.3418  -72.8394 C.3       11 UNK        -0.0865 
     18 CA        -73.5894   30.8864  -74.2481 C.3       10 UNK         0.0862 
     19 C         -72.1610   31.4952  -74.2514 C.2       10 UNK         0.5551 
     20 N         -72.0428   32.8050  -74.0838 N.am      10 UNK        -0.7319 
     21 O         -71.1639   30.7833  -74.3535 O.2       10 UNK        -0.5018 
     22 N         -73.7547   29.8583  -75.2865 N.am      10 UNK        -0.4509 
     23 C         -73.7700   30.0976  -76.6038 C.2       10 UNK         0.4899 
     24 O         -73.6702   31.2204  -77.1009 O.2       10 UNK        -0.4839 
     25 CA        -73.9670   28.8644  -77.5042 C.3       9 UNK         0.0222 
     26 CB        -73.9984   29.2025  -79.0105 C.3       9 UNK        -0.1966 
     27 N         -73.0118   27.7889  -77.2140 N.am      9 UNK        -0.4218 
     28 C         -71.6825   27.8032  -77.3968 C.2       9 UNK         0.5020 
     29 O         -71.0616   28.7643  -77.8523 O.2       9 UNK        -0.5274 
     30 CA        -70.8967   26.5343  -77.0037 C.3       8 UNK         0.0270 
     31 CB        -69.8861   26.8517  -75.8876 C.3       8 UNK        -0.1976 
     32 N         -71.7316   25.4113  -76.5641 N.am      8 UNK        -0.4313 
     33 C         -72.4847   24.6178  -77.3350 C.2       8 UNK         0.5041 
     34 O         -72.5704   24.7414  -78.5559 O.2       8 UNK        -0.5577 
     35 CA        -73.3180   23.5294  -76.6250 C.3       7 UNK         0.0284 
     36 CB        -72.4836   22.2544  -76.3951 C.3       7 UNK        -0.1958 
     37 N         -73.9807   23.9776  -75.3853 N.am      7 UNK        -0.4454 
     38 C         -73.4199   24.3718  -74.2317 C.2       7 UNK         0.5089 
     39 O         -72.2061   24.3650  -74.0249 O.2       7 UNK        -0.5125 
     40 CA        -74.3431   24.9553  -73.1538 C.3       6 UNK         0.0408 
     41 CB        -74.1825   26.4822  -73.1183 C.3       6 UNK        -0.1791 
     42 N         -75.7599   24.6379  -73.3465 N.am      6 UNK        -0.4762 
     43 C         -76.3458   23.5233  -72.8866 C.2       6 UNK         0.5007 
     44 O         -75.7249   22.5932  -72.3707 O.2       6 UNK        -0.5032 
     45 CA        -77.8753   23.4312  -73.0155 C.3       5 UNK         0.0783 
     46 C46       -78.5975   24.3678  -72.0208 C.3       11 UNK        -0.0857 
     47 S47       -78.5397   23.8054  -70.2826 S.3       11 UNK        -0.2512 
     48 C48       -77.4053   25.0068  -69.4940 C.3       11 UNK         0.0225 
     49 N         -78.2943   23.7228  -74.3871 N.am      5 UNK        -0.4615 
     50 C         -79.0981   22.9382  -75.1176 C.2       4 UNK         0.5053 
     51 O         -79.5405   21.8587  -74.7234 O.2       4 UNK        -0.5105 
     52 CA        -79.5051   23.4329  -76.5198 C.3       4 UNK         0.0263 
     53 CB        -80.9558   23.9425  -76.5027 C.3       4 UNK        -0.1981 
     54 N         -78.6368   24.4850  -77.0523 N.am      4 UNK        -0.4224 
     55 C         -77.3586   24.3060  -77.4146 C.2       3 UNK         0.4895 
     56 O         -76.7907   23.2147  -77.3949 O.2       3 UNK        -0.5091 
     57 CA        -76.5551   25.5513  -77.8296 C.3       3 UNK         0.0250 
     58 CB        -76.4084   25.6128  -79.3576 C.3       3 UNK        -0.1996 
     59 N         -77.0922   26.8266  -77.3447 N.am      3 UNK        -0.4254 
     60 C         -77.2613   27.1736  -76.0607 C.2       2 UNK         0.5004 
     61 O         -77.0551   26.4073  -75.1157 O.2       2 UNK        -0.5226 
     62 CA        -77.7272   28.6153  -75.7777 C.3       2 UNK         0.0269 
     63 CB        -78.0191   29.4587  -77.0415 C.3       2 UNK        -0.1926 
     64 N         -78.8718   28.6531  -74.8628 N.am      2 UNK        -0.4687 
     65 C         -80.0689   28.0793  -75.0540 C.2       1 UNK         0.5165 
     66 O         -80.3600   27.4014  -76.0442 O.2       1 UNK        -0.5079 
     67 H67       -84.4743   28.9790  -76.7531 H         1 UNK         0.0900 
     68 H68       -84.8419   28.0036  -75.3292 H         1 UNK         0.0900 
     69 H69       -85.1119   29.7472  -75.2963 H         1 UNK         0.0900 
     70 H70       -82.9877   27.3952  -74.2323 H         1 UNK         0.2959 
     71 H71       -80.9249   29.2609  -73.4866 H         1 UNK         0.1079 
     72 H72       -79.8121   27.1462  -72.5557 H         1 UNK         0.0837 
     73 H73       -81.1352   26.2217  -73.1897 H         1 UNK         0.0837 
     74 H74       -80.8450   29.6679  -70.8399 H         1 UNK         0.0685 
     75 H75       -81.2159   28.8134  -69.3624 H         1 UNK         0.0685 
     76 H76       -79.8523   26.2605  -69.5436 H         1 UNK         0.1434 
     77 H77       -75.6721   26.9942  -70.1482 H         1 UNK         0.1329 
     78 H78       -78.5187   30.1046  -70.9015 H         1 UNK         0.1335 
     79 H79       -76.0263   30.5933  -70.5097 H         1 UNK         0.0680 
     80 H80       -74.9059   29.2521  -70.4744 H         1 UNK         0.0680 
     81 H81       -73.8193   31.1300  -72.0935 H         1 UNK         0.1032 
     82 H82       -73.2561   29.5421  -72.5529 H         1 UNK         0.1032 
     83 H83       -74.2968   31.6865  -74.4772 H         1 UNK         0.0461 
     84 H84       -71.1221   33.2154  -74.0653 H         1 UNK         0.3453 
     85 H85       -72.8553   33.3947  -73.9900 H         1 UNK         0.3453 
     86 H86       -73.8111   28.9079  -74.9583 H         1 UNK         0.2984 
     87 H87       -74.9456   28.4664  -77.2495 H         1 UNK         0.0554 
     88 H88       -74.1545   28.3105  -79.6163 H         1 UNK         0.0847 
     89 H89       -73.0723   29.6727  -79.3423 H         1 UNK         0.0847 
     90 H90       -74.8096   29.8954  -79.2371 H         1 UNK         0.0847 
     91 H91       -73.4028   26.9368  -76.8420 H         1 UNK         0.3141 
     92 H92       -70.3420   26.2158  -77.8887 H         1 UNK         0.0743 
     93 H93       -70.3851   27.1794  -74.9744 H         1 UNK         0.0784 
     94 H94       -69.2765   25.9814  -75.6439 H         1 UNK         0.0784 
     95 H95       -69.2036   27.6478  -76.1889 H         1 UNK         0.0784 
     96 H96       -71.7167   25.1890  -75.5695 H         1 UNK         0.3213 
     97 H97       -74.1227   23.2632  -77.3116 H         1 UNK         0.0855 
     98 H98       -71.6306   22.4317  -75.7396 H         1 UNK         0.0814 
     99 H99       -72.0904   21.8740  -77.3388 H         1 UNK         0.0814 
    100 H100      -73.0871   21.4616  -75.9531 H         1 UNK         0.0814 
    101 H101      -74.9892   24.0226  -75.4295 H         1 UNK         0.3105 
    102 H102      -74.0131   24.5607  -72.1903 H         1 UNK         0.0547 
    103 H103      -73.1423   26.7691  -72.9579 H         1 UNK         0.0837 
    104 H104      -74.5139   26.9455  -74.0475 H         1 UNK         0.0837 
    105 H105      -74.7625   26.9156  -72.3064 H         1 UNK         0.0837 
    106 H106      -76.3210   25.3529  -73.8067 H         1 UNK         0.3020 
    107 H107      -78.1413   22.4021  -72.7623 H         1 UNK         0.1245 
    108 H108      -79.6562   24.4182  -72.2793 H         1 UNK         0.0781 
    109 H109      -78.2282   25.3881  -72.1239 H         1 UNK         0.0781 
    110 H110      -76.3887   24.7654  -69.8088 H         1 UNK         0.0836 
    111 H111      -77.4355   24.8649  -68.4131 H         1 UNK         0.0836 
    112 H112      -77.9663   24.5955  -74.7858 H         1 UNK         0.3022 
    113 H113      -79.4503   22.5770  -77.1958 H         1 UNK         0.0747 
    114 H114      -81.2795   24.2585  -77.4946 H         1 UNK         0.0793 
    115 H115      -81.6408   23.1597  -76.1738 H         1 UNK         0.0793 
    116 H116      -81.0787   24.7873  -75.8240 H         1 UNK         0.0793 
    117 H117      -79.0205   25.4208  -77.0776 H         1 UNK         0.3047 
    118 H118      -75.5579   25.4432  -77.4016 H         1 UNK         0.0822 
    119 H119      -75.7501   26.4260  -79.6623 H         1 UNK         0.0807 
    120 H120      -77.3709   25.7538  -79.8510 H         1 UNK         0.0807 
    121 H121      -75.9744   24.6898  -79.7455 H         1 UNK         0.0807 
    122 H122      -77.3314   27.5065  -78.0522 H         1 UNK         0.2946 
    123 H123      -76.8975   29.0918  -75.2560 H         1 UNK         0.1144 
    124 H124      -78.3150   30.4721  -76.7694 H         1 UNK         0.0793 
    125 H125      -78.8249   29.0367  -77.6436 H         1 UNK         0.0793 
    126 H126      -77.1381   29.5531  -77.6771 H         1 UNK         0.0793 
    127 H127      -78.7044   29.1371  -73.9914 H         1 UNK         0.2896 
@<TRIPOS>BOND
     1    1    2 1    
     2    1   67 1    
     3    1   68 1    
     4    1   69 1    
     5    2    3 2    
     6    2    4 am   BACKBONE|DICT|INTERRES
     7    4    5 1    
     8    4   70 1    
     9    5    6 1    
    10    5   65 1    
    11    5   71 1    
    12    6    7 1    
    13    6   72 1    
    14    6   73 1    
    15    7    8 1    
    16    8    9 1    
    17    8   74 1    
    18    8   75 1    
    19    9   10 ar   
    20    9   14 ar   
    21   10   11 ar   
    22   10   76 1    
    23   11   12 ar   
    24   11   48 1    
    25   12   13 ar   
    26   12   77 1    
    27   13   14 ar   
    28   13   15 1    
    29   14   78 1    
    30   15   16 1    
    31   15   79 1    
    32   15   80 1    
    33   16   17 1    
    34   17   18 1    
    35   17   81 1    
    36   17   82 1    
    37   18   19 1    
    38   18   22 1    
    39   18   83 1    
    40   19   20 am   BACKBONE|DICT|INTERRES
    41   19   21 2    
    42   20   84 1    
    43   20   85 1    
    44   22   23 am   BACKBONE|DICT|INTERRES
    45   22   86 1    
    46   23   24 2    
    47   23   25 1    
    48   25   26 1    
    49   25   27 1    
    50   25   87 1    
    51   26   88 1    
    52   26   89 1    
    53   26   90 1    
    54   27   28 am   BACKBONE|DICT|INTERRES
    55   27   91 1    
    56   28   29 2    
    57   28   30 1    
    58   30   31 1    
    59   30   32 1    
    60   30   92 1    
    61   31   93 1    
    62   31   94 1    
    63   31   95 1    
    64   32   33 am   BACKBONE|DICT|INTERRES
    65   32   96 1    
    66   33   34 2    
    67   33   35 1    
    68   35   36 1    
    69   35   37 1    
    70   35   97 1    
    71   36   98 1    
    72   36   99 1    
    73   36  100 1    
    74   37   38 am   BACKBONE|DICT|INTERRES
    75   37  101 1    
    76   38   39 2    
    77   38   40 1    
    78   40   41 1    
    79   40   42 1    
    80   40  102 1    
    81   41  103 1    
    82   41  104 1    
    83   41  105 1    
    84   42   43 am   BACKBONE|DICT|INTERRES
    85   42  106 1    
    86   43   44 2    
    87   43   45 1    
    88   45   46 1    
    89   45   49 1    
    90   45  107 1    
    91   46   47 1    
    92   46  108 1    
    93   46  109 1    
    94   47   48 1    
    95   48  110 1    
    96   48  111 1    
    97   49   50 am   BACKBONE|DICT|INTERRES
    98   49  112 1    
    99   50   51 2    
   100   50   52 1    
   101   52   53 1    
   102   52   54 1    
   103   52  113 1    
   104   53  114 1    
   105   53  115 1    
   106   53  116 1    
   107   54   55 am   BACKBONE|DICT|INTERRES
   108   54  117 1    
   109   55   56 2    
   110   55   57 1    
   111   57   58 1    
   112   57   59 1    
   113   57  118 1    
   114   58  119 1    
   115   58  120 1    
   116   58  121 1    
   117   59   60 am   BACKBONE|DICT|INTERRES
   118   59  122 1    
   119   60   61 2    
   120   60   62 1    
   121   62   63 1    
   122   62   64 1    
   123   62  123 1    
   124   63  124 1    
   125   63  125 1    
   126   63  126 1    
   127   64   65 am   BACKBONE|DICT|INTERRES
   128   64  127 1    
   129   65   66 2    
@<TRIPOS>SUBSTRUCTURE
     1 UNK         1 GROUP             0       ****    0 ROOT    
