@<TRIPOS>MOLECULE
3R135
127   129    1
SMALL
USER_CHARGES


@<TRIPOS>ATOM
      1 CA        -82.7855   31.2112  -76.0097 C.3       0 UNK        -0.1998 
      2 C         -81.9510   29.9907  -76.3675 C.2       0 UNK         0.4909 
      3 O         -81.9309   29.5810  -77.5288 O.2       0 UNK        -0.5240 
      4 N         -81.2568   29.4102  -75.3810 N.am      1 UNK        -0.4739 
      5 CA        -80.4378   28.2050  -75.5310 C.3       1 UNK         0.0864 
      6 C6        -79.3973   28.0670  -74.3914 C.3       11 UNK        -0.0881 
      7 S7        -78.1749   29.4236  -74.3828 S.3       11 UNK        -0.2682 
      8 C8        -78.1168   29.8747  -72.6166 C.3       11 UNK         0.0289 
      9 C9        -77.2647   28.9063  -71.8053 C.ar      11 UNK        -0.0687 
     10 C10       -77.7875   27.6768  -71.3974 C.ar      11 UNK        -0.0823 
     11 C11       -77.0027   26.7727  -70.6804 C.ar      11 UNK        -0.0830 
     12 C12       -75.6990   27.1238  -70.3212 C.ar      11 UNK        -0.1021 
     13 C13       -75.1643   28.3572  -70.7020 C.ar      11 UNK        -0.0753 
     14 C14       -75.9515   29.2385  -71.4559 C.ar      11 UNK        -0.0933 
     15 C15       -73.7209   28.6891  -70.3354 C.3       11 UNK         0.0166 
     16 S16       -73.4931   30.4175  -69.7949 S.3       11 UNK        -0.2615 
     17 C17       -71.9438   30.8632  -70.6529 C.3       11 UNK        -0.0865 
     18 CA        -72.1981   31.5030  -72.0446 C.3       10 UNK         0.0862 
     19 C         -70.8849   32.0859  -72.6467 C.2       10 UNK         0.5551 
     20 N         -70.4196   31.6437  -73.8096 N.am      10 UNK        -0.7319 
     21 O         -70.2774   32.9678  -72.0446 O.2       10 UNK        -0.5018 
     22 N         -72.9120   30.5779  -72.9380 N.am      10 UNK        -0.4509 
     23 C         -73.6723   30.9356  -73.9780 C.2       10 UNK         0.4899 
     24 O         -73.9233   32.1068  -74.2661 O.2       10 UNK        -0.4839 
     25 CA        -74.2486   29.7848  -74.8334 C.3       9 UNK         0.0222 
     26 CB        -74.6133   30.2472  -76.2584 C.3       9 UNK        -0.1966 
     27 N         -73.4121   28.5723  -74.8800 N.am      9 UNK        -0.4218 
     28 C         -72.1156   28.4943  -75.2285 C.2       9 UNK         0.5020 
     29 O         -71.4221   29.4649  -75.5347 O.2       9 UNK        -0.5274 
     30 CA        -71.4795   27.0980  -75.2131 C.3       8 UNK         0.0270 
     31 CB        -71.3188   26.5801  -73.7724 C.3       8 UNK        -0.1976 
     32 N         -72.2874   26.1639  -75.9954 N.am      8 UNK        -0.4313 
     33 C         -72.0964   25.8968  -77.2964 C.2       8 UNK         0.5041 
     34 O         -71.1389   26.3145  -77.9491 O.2       8 UNK        -0.5577 
     35 CA        -73.1547   25.0246  -78.0012 C.3       7 UNK         0.0284 
     36 CB        -72.7259   23.5489  -77.9951 C.3       7 UNK        -0.1958 
     37 N         -74.4856   25.1490  -77.4011 N.am      7 UNK        -0.4454 
     38 C         -75.2168   26.2752  -77.4185 C.2       7 UNK         0.5089 
     39 O         -74.9238   27.2561  -78.1005 O.2       7 UNK        -0.5125 
     40 CA        -76.4647   26.3417  -76.5136 C.3       6 UNK         0.0408 
     41 CB        -77.7307   26.2470  -77.3781 C.3       6 UNK        -0.1791 
     42 N         -76.5019   25.3074  -75.4708 N.am      6 UNK        -0.4762 
     43 C         -75.5951   25.1626  -74.4884 C.2       6 UNK         0.5007 
     44 O         -74.6960   25.9828  -74.2875 O.2       6 UNK        -0.5032 
     45 CA        -75.6001   23.8416  -73.6773 C.3       5 UNK         0.0783 
     46 C46       -75.9028   24.0441  -72.1736 C.3       11 UNK        -0.0857 
     47 S47       -77.6677   24.3374  -71.8000 S.3       11 UNK        -0.2512 
     48 C48       -77.5603   25.4038  -70.3272 C.3       11 UNK         0.0225 
     49 N         -76.4320   22.7841  -74.2608 N.am      5 UNK        -0.4615 
     50 C         -76.2152   22.1800  -75.4355 C.2       4 UNK         0.5053 
     51 O         -75.2322   22.4072  -76.1410 O.2       4 UNK        -0.5105 
     52 CA        -77.3005   21.2057  -75.9348 C.3       4 UNK         0.0263 
     53 CB        -76.9150   19.7588  -75.5889 C.3       4 UNK        -0.1981 
     54 N         -78.6608   21.4773  -75.4412 N.am      4 UNK        -0.4224 
     55 C         -79.3228   22.6352  -75.5845 C.2       3 UNK         0.4895 
     56 O         -78.8238   23.6430  -76.0872 O.2       3 UNK        -0.5091 
     57 CA        -80.7587   22.6847  -75.0328 C.3       3 UNK         0.0250 
     58 CB        -80.7487   22.7672  -73.4975 C.3       3 UNK        -0.1996 
     59 N         -81.4902   23.8417  -75.5510 N.am      3 UNK        -0.4254 
     60 C         -81.9469   23.9812  -76.8003 C.2       2 UNK         0.5004 
     61 O         -81.9282   23.0782  -77.6381 O.2       2 UNK        -0.5226 
     62 CA        -82.5112   25.3605  -77.1946 C.3       2 UNK         0.0269 
     63 CB        -83.9586   25.5353  -76.6933 C.3       2 UNK        -0.1926 
     64 N         -81.6660   26.5090  -76.8203 N.am      2 UNK        -0.4687 
     65 C         -81.3555   26.9667  -75.5980 C.2       1 UNK         0.5165 
     66 O         -81.7669   26.4626  -74.5506 O.2       1 UNK        -0.5079 
     67 H67       -82.7007   31.4681  -74.9540 H         1 UNK         0.0900 
     68 H68       -82.4614   32.0714  -76.5948 H         1 UNK         0.0900 
     69 H69       -83.8361   31.0247  -76.2304 H         1 UNK         0.0900 
     70 H70       -81.3155   29.7831  -74.4445 H         1 UNK         0.2959 
     71 H71       -79.8885   28.2786  -76.4723 H         1 UNK         0.1079 
     72 H72       -78.8485   27.1263  -74.4722 H         1 UNK         0.0837 
     73 H73       -79.9166   28.0361  -73.4335 H         1 UNK         0.0837 
     74 H74       -77.7113   30.8842  -72.5340 H         1 UNK         0.0685 
     75 H75       -79.1271   29.9232  -72.2080 H         1 UNK         0.0685 
     76 H76       -78.7985   27.4010  -71.6566 H         1 UNK         0.1434 
     77 H77       -75.0910   26.4242  -69.7639 H         1 UNK         0.1329 
     78 H78       -75.5438   30.1890  -71.7687 H         1 UNK         0.1335 
     79 H79       -73.3703   28.0397  -69.5316 H         1 UNK         0.0680 
     80 H80       -73.0941   28.4654  -71.1980 H         1 UNK         0.0680 
     81 H81       -71.2945   29.9896  -70.7347 H         1 UNK         0.1032 
     82 H82       -71.4139   31.5654  -70.0061 H         1 UNK         0.1032 
     83 H83       -72.8481   32.3656  -71.8846 H         1 UNK         0.0461 
     84 H84       -69.5708   32.0403  -74.1795 H         1 UNK         0.3453 
     85 H85       -70.9041   30.9211  -74.3331 H         1 UNK         0.3453 
     86 H86       -72.7447   29.5958  -72.7889 H         1 UNK         0.2984 
     87 H87       -75.1736   29.4859  -74.3404 H         1 UNK         0.0554 
     88 H88       -75.1278   29.4621  -76.8082 H         1 UNK         0.0847 
     89 H89       -73.7300   30.5370  -76.8281 H         1 UNK         0.0847 
     90 H90       -75.2875   31.1043  -76.2374 H         1 UNK         0.0847 
     91 H91       -73.8839   27.7106  -74.6144 H         1 UNK         0.3141 
     92 H92       -70.4812   27.1782  -75.6490 H         1 UNK         0.0743 
     93 H93       -70.8230   25.6094  -73.7576 H         1 UNK         0.0784 
     94 H94       -70.7077   27.2629  -73.1805 H         1 UNK         0.0784 
     95 H95       -72.2750   26.4717  -73.2598 H         1 UNK         0.0784 
     96 H96       -73.1270   25.8153  -75.5467 H         1 UNK         0.3213 
     97 H97       -73.2202   25.3585  -79.0391 H         1 UNK         0.0855 
     98 H98       -71.7549   23.4229  -78.4760 H         1 UNK         0.0814 
     99 H99       -73.4387   22.9256  -78.5353 H         1 UNK         0.0814 
    100 H100      -72.6411   23.1571  -76.9806 H         1 UNK         0.0814 
    101 H101      -74.8229   24.3529  -76.8701 H         1 UNK         0.3105 
    102 H102      -76.4593   27.3116  -76.0123 H         1 UNK         0.0547 
    103 H103      -78.6312   26.2424  -76.7687 H         1 UNK         0.0837 
    104 H104      -77.7386   25.3367  -77.9793 H         1 UNK         0.0837 
    105 H105      -77.8006   27.0925  -78.0635 H         1 UNK         0.0837 
    106 H106      -77.2225   24.5972  -75.5795 H         1 UNK         0.3020 
    107 H107      -74.5696   23.4833  -73.7373 H         1 UNK         0.1245 
    108 H108      -75.2871   24.8504  -71.7750 H         1 UNK         0.0781 
    109 H109      -75.6000   23.1526  -71.6224 H         1 UNK         0.0781 
    110 H110      -76.9507   24.9142  -69.5661 H         1 UNK         0.0836 
    111 H111      -78.5563   25.5173  -69.8967 H         1 UNK         0.0836 
    112 H112      -77.2766   22.5641  -73.7533 H         1 UNK         0.3022 
    113 H113      -77.3309   21.2993  -77.0223 H         1 UNK         0.0747 
    114 H114      -77.6067   19.0446  -76.0361 H         1 UNK         0.0793 
    115 H115      -75.9191   19.5191  -75.9647 H         1 UNK         0.0793 
    116 H116      -76.9058   19.5903  -74.5112 H         1 UNK         0.0793 
    117 H117      -79.1368   20.7037  -74.9991 H         1 UNK         0.3047 
    118 H118      -81.2786   21.7750  -75.3404 H         1 UNK         0.0822 
    119 H119      -80.2765   23.6867  -73.1498 H         1 UNK         0.0807 
    120 H120      -80.2064   21.9316  -73.0533 H         1 UNK         0.0807 
    121 H121      -81.7616   22.7430  -73.0951 H         1 UNK         0.0807 
    122 H122      -81.5347   24.6637  -74.9547 H         1 UNK         0.2946 
    123 H123      -82.5471   25.3712  -78.2856 H         1 UNK         0.1144 
    124 H124      -84.5976   24.7339  -77.0667 H         1 UNK         0.0793 
    125 H125      -84.0224   25.5168  -75.6050 H         1 UNK         0.0793 
    126 H126      -84.3856   26.4771  -77.0380 H         1 UNK         0.0793 
    127 H127      -81.2962   27.0263  -77.6072 H         1 UNK         0.2896 
@<TRIPOS>BOND
     1    1    2 1    
     2    1   67 1    
     3    1   68 1    
     4    1   69 1    
     5    2    3 2    
     6    2    4 am   BACKBONE|DICT|INTERRES
     7    4    5 1    
     8    4   70 1    
     9    5    6 1    
    10    5   65 1    
    11    5   71 1    
    12    6    7 1    
    13    6   72 1    
    14    6   73 1    
    15    7    8 1    
    16    8    9 1    
    17    8   74 1    
    18    8   75 1    
    19    9   10 ar   
    20    9   14 ar   
    21   10   11 ar   
    22   10   76 1    
    23   11   12 ar   
    24   11   48 1    
    25   12   13 ar   
    26   12   77 1    
    27   13   14 ar   
    28   13   15 1    
    29   14   78 1    
    30   15   16 1    
    31   15   79 1    
    32   15   80 1    
    33   16   17 1    
    34   17   18 1    
    35   17   81 1    
    36   17   82 1    
    37   18   19 1    
    38   18   22 1    
    39   18   83 1    
    40   19   20 am   BACKBONE|DICT|INTERRES
    41   19   21 2    
    42   20   84 1    
    43   20   85 1    
    44   22   23 am   BACKBONE|DICT|INTERRES
    45   22   86 1    
    46   23   24 2    
    47   23   25 1    
    48   25   26 1    
    49   25   27 1    
    50   25   87 1    
    51   26   88 1    
    52   26   89 1    
    53   26   90 1    
    54   27   28 am   BACKBONE|DICT|INTERRES
    55   27   91 1    
    56   28   29 2    
    57   28   30 1    
    58   30   31 1    
    59   30   32 1    
    60   30   92 1    
    61   31   93 1    
    62   31   94 1    
    63   31   95 1    
    64   32   33 am   BACKBONE|DICT|INTERRES
    65   32   96 1    
    66   33   34 2    
    67   33   35 1    
    68   35   36 1    
    69   35   37 1    
    70   35   97 1    
    71   36   98 1    
    72   36   99 1    
    73   36  100 1    
    74   37   38 am   BACKBONE|DICT|INTERRES
    75   37  101 1    
    76   38   39 2    
    77   38   40 1    
    78   40   41 1    
    79   40   42 1    
    80   40  102 1    
    81   41  103 1    
    82   41  104 1    
    83   41  105 1    
    84   42   43 am   BACKBONE|DICT|INTERRES
    85   42  106 1    
    86   43   44 2    
    87   43   45 1    
    88   45   46 1    
    89   45   49 1    
    90   45  107 1    
    91   46   47 1    
    92   46  108 1    
    93   46  109 1    
    94   47   48 1    
    95   48  110 1    
    96   48  111 1    
    97   49   50 am   BACKBONE|DICT|INTERRES
    98   49  112 1    
    99   50   51 2    
   100   50   52 1    
   101   52   53 1    
   102   52   54 1    
   103   52  113 1    
   104   53  114 1    
   105   53  115 1    
   106   53  116 1    
   107   54   55 am   BACKBONE|DICT|INTERRES
   108   54  117 1    
   109   55   56 2    
   110   55   57 1    
   111   57   58 1    
   112   57   59 1    
   113   57  118 1    
   114   58  119 1    
   115   58  120 1    
   116   58  121 1    
   117   59   60 am   BACKBONE|DICT|INTERRES
   118   59  122 1    
   119   60   61 2    
   120   60   62 1    
   121   62   63 1    
   122   62   64 1    
   123   62  123 1    
   124   63  124 1    
   125   63  125 1    
   126   63  126 1    
   127   64   65 am   BACKBONE|DICT|INTERRES
   128   64  127 1    
   129   65   66 2    
@<TRIPOS>SUBSTRUCTURE
     1 UNK         1 GROUP             0       ****    0 ROOT    
