@<TRIPOS>MOLECULE
3R135
127   129    1
SMALL
USER_CHARGES


@<TRIPOS>ATOM
      1 CA        -80.9047   23.6035  -71.2818 C.3       0 UNK        -0.1998 
      2 C         -80.8479   24.5957  -72.4318 C.2       0 UNK         0.4909 
      3 O         -80.0059   24.4530  -73.3179 O.2       0 UNK        -0.5240 
      4 N         -81.7408   25.5976  -72.4333 N.am      1 UNK        -0.4739 
      5 CA        -81.8368   26.6648  -73.4466 C.3       1 UNK         0.0864 
      6 C6        -80.5226   27.4909  -73.5462 C.3       11 UNK        -0.0881 
      7 S7        -80.7874   29.2673  -73.8810 S.3       11 UNK        -0.2682 
      8 C8        -80.1263   30.0581  -72.3753 C.3       11 UNK         0.0289 
      9 C9        -78.6551   29.7301  -72.1563 C.ar      11 UNK        -0.0687 
     10 C10       -78.2788   28.8319  -71.1540 C.ar      11 UNK        -0.0823 
     11 C11       -76.9396   28.4705  -70.9880 C.ar      11 UNK        -0.0830 
     12 C12       -75.9668   29.0403  -71.8149 C.ar      11 UNK        -0.1021 
     13 C13       -76.3278   29.9581  -72.8067 C.ar      11 UNK        -0.0753 
     14 C14       -77.6735   30.3010  -72.9706 C.ar      11 UNK        -0.0933 
     15 C15       -75.2785   30.5450  -73.7377 C.3       11 UNK         0.0166 
     16 S16       -74.4929   32.0278  -73.0329 S.3       11 UNK        -0.2615 
     17 C17       -73.0396   31.3161  -72.1855 C.3       11 UNK        -0.0865 
     18 CA        -71.7476   31.4400  -73.0343 C.3       10 UNK         0.0862 
     19 C         -70.5133   30.9485  -72.2339 C.2       10 UNK         0.5551 
     20 N         -69.6998   31.8602  -71.7196 N.am      10 UNK        -0.7319 
     21 O         -70.3189   29.7510  -72.0365 O.2       10 UNK        -0.5018 
     22 N         -71.8791   30.7251  -74.3095 N.am      10 UNK        -0.4509 
     23 C         -71.1095   30.9095  -75.3872 C.2       10 UNK         0.4899 
     24 O         -70.2052   31.7439  -75.4526 O.2       10 UNK        -0.4839 
     25 CA        -71.4347   30.0127  -76.5984 C.3       9 UNK         0.0222 
     26 CB        -70.3629   30.0747  -77.7078 C.3       9 UNK        -0.1966 
     27 N         -71.7228   28.6240  -76.2152 N.am      9 UNK        -0.4218 
     28 C         -70.8852   27.7587  -75.6156 C.2       9 UNK         0.5020 
     29 O         -69.7174   28.0214  -75.3252 O.2       9 UNK        -0.5274 
     30 CA        -71.4299   26.3587  -75.2680 C.3       8 UNK         0.0270 
     31 CB        -71.6687   26.2435  -73.7531 C.3       8 UNK        -0.1976 
     32 N         -72.6611   26.0164  -75.9876 N.am      8 UNK        -0.4313 
     33 C         -72.7101   25.7364  -77.3001 C.2       8 UNK         0.5041 
     34 O         -71.7046   25.6379  -78.0051 O.2       8 UNK        -0.5577 
     35 CA        -74.0915   25.5570  -77.9623 C.3       7 UNK         0.0284 
     36 CB        -74.3422   24.0740  -78.2818 C.3       7 UNK        -0.1958 
     37 N         -75.2263   26.0751  -77.1932 N.am      7 UNK        -0.4454 
     38 C         -75.4017   27.3423  -76.7925 C.2       7 UNK         0.5089 
     39 O         -74.6164   28.2585  -77.0421 O.2       7 UNK        -0.5125 
     40 CA        -76.6159   27.6086  -75.8842 C.3       6 UNK         0.0408 
     41 CB        -77.8688   27.9150  -76.7168 C.3       6 UNK        -0.1791 
     42 N         -76.8872   26.5160  -74.9402 N.am      6 UNK        -0.4762 
     43 C         -76.0153   26.0751  -74.0181 C.2       6 UNK         0.5007 
     44 O         -74.8790   26.5321  -73.8939 O.2       6 UNK        -0.5032 
     45 CA        -76.4527   24.8934  -73.1300 C.3       5 UNK         0.0783 
     46 C46       -77.0890   25.3517  -71.7945 C.3       11 UNK        -0.0857 
     47 S47       -75.8261   25.9308  -70.6063 S.3       11 UNK        -0.2512 
     48 C48       -76.5569   27.4543  -69.9199 C.3       11 UNK         0.0225 
     49 N         -77.3271   23.9744  -73.8632 N.am      5 UNK        -0.4615 
     50 C         -76.8766   23.0174  -74.6828 C.2       4 UNK         0.5053 
     51 O         -75.6822   22.7900  -74.8781 O.2       4 UNK        -0.5105 
     52 CA        -77.9312   22.1718  -75.4163 C.3       4 UNK         0.0263 
     53 CB        -78.6741   21.2480  -74.4363 C.3       4 UNK        -0.1981 
     54 N         -78.9069   22.9353  -76.2016 N.am      4 UNK        -0.4224 
     55 C         -78.6409   23.8761  -77.1170 C.2       3 UNK         0.4895 
     56 O         -77.5185   24.3360  -77.3219 O.2       3 UNK        -0.5091 
     57 CA        -79.8094   24.3962  -77.9758 C.3       3 UNK         0.0250 
     58 CB        -79.9688   23.5434  -79.2492 C.3       3 UNK        -0.1996 
     59 N         -81.0922   24.5611  -77.2779 N.am      3 UNK        -0.4254 
     60 C         -81.9068   23.6371  -76.7504 C.2       2 UNK         0.5004 
     61 O         -81.6570   22.4305  -76.7321 O.2       2 UNK        -0.5226 
     62 CA        -83.1889   24.1740  -76.0825 C.3       2 UNK         0.0269 
     63 CB        -84.1812   23.0524  -75.7231 C.3       2 UNK        -0.1926 
     64 N         -82.8653   24.9245  -74.8679 N.am      2 UNK        -0.4687 
     65 C         -82.3133   26.1463  -74.8269 C.2       1 UNK         0.5165 
     66 O         -82.1527   26.8342  -75.8374 O.2       1 UNK        -0.5079 
     67 H67       -79.9635   23.6128  -70.7330 H         1 UNK         0.0900 
     68 H68       -81.0654   22.5962  -71.6650 H         1 UNK         0.0900 
     69 H69       -81.7081   23.8342  -70.5827 H         1 UNK         0.0900 
     70 H70       -82.4158   25.6565  -71.6824 H         1 UNK         0.2959 
     71 H71       -82.6305   27.3247  -73.0929 H         1 UNK         0.1079 
     72 H72       -79.8509   27.0817  -74.3022 H         1 UNK         0.0837 
     73 H73       -79.9735   27.3975  -72.6123 H         1 UNK         0.0837 
     74 H74       -80.2469   31.1389  -72.4607 H         1 UNK         0.0685 
     75 H75       -80.7259   29.7496  -71.5174 H         1 UNK         0.0685 
     76 H76       -79.0363   28.3894  -70.5214 H         1 UNK         0.1434 
     77 H77       -74.9338   28.7442  -71.7003 H         1 UNK         0.1329 
     78 H78       -77.9630   30.9935  -73.7492 H         1 UNK         0.1335 
     79 H79       -75.7395   30.8220  -74.6871 H         1 UNK         0.0680 
     80 H80       -74.5316   29.7883  -73.9807 H         1 UNK         0.0680 
     81 H81       -73.2292   30.2765  -71.9162 H         1 UNK         0.1032 
     82 H82       -72.9204   31.8504  -71.2410 H         1 UNK         0.1032 
     83 H83       -71.6051   32.4979  -73.2662 H         1 UNK         0.0461 
     84 H84       -68.9025   31.5581  -71.1817 H         1 UNK         0.3453 
     85 H85       -69.8578   32.8445  -71.8711 H         1 UNK         0.3453 
     86 H86       -72.5681   29.9908  -74.3364 H         1 UNK         0.2984 
     87 H87       -72.3618   30.4029  -77.0211 H         1 UNK         0.0554 
     88 H88       -70.6301   29.4410  -78.5534 H         1 UNK         0.0847 
     89 H89       -69.3843   29.7573  -77.3466 H         1 UNK         0.0847 
     90 H90       -70.2530   31.0912  -78.0875 H         1 UNK         0.0847 
     91 H91       -72.6666   28.3094  -76.4225 H         1 UNK         0.3141 
     92 H92       -70.6640   25.6312  -75.5449 H         1 UNK         0.0743 
     93 H93       -72.3556   27.0099  -73.3924 H         1 UNK         0.0784 
     94 H94       -72.0779   25.2696  -73.4836 H         1 UNK         0.0784 
     95 H95       -70.7349   26.3678  -73.2032 H         1 UNK         0.0784 
     96 H96       -73.5272   26.0882  -75.4629 H         1 UNK         0.3213 
     97 H97       -74.0628   26.1091  -78.9038 H         1 UNK         0.0855 
     98 H98       -74.4432   23.4795  -77.3727 H         1 UNK         0.0814 
     99 H99       -73.5209   23.6504  -78.8615 H         1 UNK         0.0814 
    100 H100      -75.2511   23.9430  -78.8693 H         1 UNK         0.0814 
    101 H101      -75.9645   25.4066  -76.9822 H         1 UNK         0.3105 
    102 H102      -76.3884   28.4941  -75.2919 H         1 UNK         0.0547 
    103 H103      -78.1788   27.0571  -77.3110 H         1 UNK         0.0837 
    104 H104      -78.7055   28.2129  -76.0856 H         1 UNK         0.0837 
    105 H105      -77.6826   28.7378  -77.4084 H         1 UNK         0.0837 
    106 H106      -77.7775   26.0473  -75.0177 H         1 UNK         0.3020 
    107 H107      -75.5403   24.3455  -72.8805 H         1 UNK         0.1245 
    108 H108      -77.6011   24.5127  -71.3214 H         1 UNK         0.0781 
    109 H109      -77.8564   26.1075  -71.9647 H         1 UNK         0.0781 
    110 H110      -75.8393   27.9115  -69.2373 H         1 UNK         0.0836 
    111 H111      -77.4220   27.1820  -69.3132 H         1 UNK         0.0836 
    112 H112      -78.3333   24.0982  -73.7423 H         1 UNK         0.3022 
    113 H113      -77.3926   21.5395  -76.1248 H         1 UNK         0.0747 
    114 H114      -79.3160   20.5438  -74.9661 H         1 UNK         0.0793 
    115 H115      -77.9726   20.6617  -73.8412 H         1 UNK         0.0793 
    116 H116      -79.2997   21.8118  -73.7435 H         1 UNK         0.0793 
    117 H117      -79.8744   22.6283  -76.1445 H         1 UNK         0.3047 
    118 H118      -79.5297   25.3995  -78.2986 H         1 UNK         0.0822 
    119 H119      -80.7331   23.9541  -79.9088 H         1 UNK         0.0807 
    120 H120      -80.2413   22.5128  -79.0201 H         1 UNK         0.0807 
    121 H121      -79.0362   23.5122  -79.8145 H         1 UNK         0.0807 
    122 H122      -81.3737   25.5261  -77.1287 H         1 UNK         0.2946 
    123 H123      -83.6787   24.8414  -76.7957 H         1 UNK         0.1144 
    124 H124      -83.7619   22.3574  -74.9943 H         1 UNK         0.0793 
    125 H125      -84.4519   22.4737  -76.6073 H         1 UNK         0.0793 
    126 H126      -85.1041   23.4576  -75.3078 H         1 UNK         0.0793 
    127 H127      -82.9306   24.4178  -73.9970 H         1 UNK         0.2896 
@<TRIPOS>BOND
     1    1    2 1    
     2    1   67 1    
     3    1   68 1    
     4    1   69 1    
     5    2    3 2    
     6    2    4 am   BACKBONE|DICT|INTERRES
     7    4    5 1    
     8    4   70 1    
     9    5    6 1    
    10    5   65 1    
    11    5   71 1    
    12    6    7 1    
    13    6   72 1    
    14    6   73 1    
    15    7    8 1    
    16    8    9 1    
    17    8   74 1    
    18    8   75 1    
    19    9   10 ar   
    20    9   14 ar   
    21   10   11 ar   
    22   10   76 1    
    23   11   12 ar   
    24   11   48 1    
    25   12   13 ar   
    26   12   77 1    
    27   13   14 ar   
    28   13   15 1    
    29   14   78 1    
    30   15   16 1    
    31   15   79 1    
    32   15   80 1    
    33   16   17 1    
    34   17   18 1    
    35   17   81 1    
    36   17   82 1    
    37   18   19 1    
    38   18   22 1    
    39   18   83 1    
    40   19   20 am   BACKBONE|DICT|INTERRES
    41   19   21 2    
    42   20   84 1    
    43   20   85 1    
    44   22   23 am   BACKBONE|DICT|INTERRES
    45   22   86 1    
    46   23   24 2    
    47   23   25 1    
    48   25   26 1    
    49   25   27 1    
    50   25   87 1    
    51   26   88 1    
    52   26   89 1    
    53   26   90 1    
    54   27   28 am   BACKBONE|DICT|INTERRES
    55   27   91 1    
    56   28   29 2    
    57   28   30 1    
    58   30   31 1    
    59   30   32 1    
    60   30   92 1    
    61   31   93 1    
    62   31   94 1    
    63   31   95 1    
    64   32   33 am   BACKBONE|DICT|INTERRES
    65   32   96 1    
    66   33   34 2    
    67   33   35 1    
    68   35   36 1    
    69   35   37 1    
    70   35   97 1    
    71   36   98 1    
    72   36   99 1    
    73   36  100 1    
    74   37   38 am   BACKBONE|DICT|INTERRES
    75   37  101 1    
    76   38   39 2    
    77   38   40 1    
    78   40   41 1    
    79   40   42 1    
    80   40  102 1    
    81   41  103 1    
    82   41  104 1    
    83   41  105 1    
    84   42   43 am   BACKBONE|DICT|INTERRES
    85   42  106 1    
    86   43   44 2    
    87   43   45 1    
    88   45   46 1    
    89   45   49 1    
    90   45  107 1    
    91   46   47 1    
    92   46  108 1    
    93   46  109 1    
    94   47   48 1    
    95   48  110 1    
    96   48  111 1    
    97   49   50 am   BACKBONE|DICT|INTERRES
    98   49  112 1    
    99   50   51 2    
   100   50   52 1    
   101   52   53 1    
   102   52   54 1    
   103   52  113 1    
   104   53  114 1    
   105   53  115 1    
   106   53  116 1    
   107   54   55 am   BACKBONE|DICT|INTERRES
   108   54  117 1    
   109   55   56 2    
   110   55   57 1    
   111   57   58 1    
   112   57   59 1    
   113   57  118 1    
   114   58  119 1    
   115   58  120 1    
   116   58  121 1    
   117   59   60 am   BACKBONE|DICT|INTERRES
   118   59  122 1    
   119   60   61 2    
   120   60   62 1    
   121   62   63 1    
   122   62   64 1    
   123   62  123 1    
   124   63  124 1    
   125   63  125 1    
   126   63  126 1    
   127   64   65 am   BACKBONE|DICT|INTERRES
   128   64  127 1    
   129   65   66 2    
@<TRIPOS>SUBSTRUCTURE
     1 UNK         1 GROUP             0       ****    0 ROOT    
