@<TRIPOS>MOLECULE
3R135
127   129    1
SMALL
USER_CHARGES


@<TRIPOS>ATOM
      1 CA        -79.6022   30.4692  -75.6183 C.3       0 UNK        -0.1998 
      2 C         -79.6778   29.3461  -74.5961 C.2       0 UNK         0.4909 
      3 O         -78.7187   28.5907  -74.4542 O.2       0 UNK        -0.5240 
      4 N         -80.8078   29.2273  -73.8869 N.am      1 UNK        -0.4739 
      5 CA        -81.0495   28.2199  -72.8470 C.3       1 UNK         0.0864 
      6 C6        -81.9964   28.7411  -71.7335 C.3       11 UNK        -0.0881 
      7 S7        -81.3989   30.2522  -70.9069 S.3       11 UNK        -0.2682 
      8 C8        -80.5134   29.5692  -69.4688 C.3       11 UNK         0.0289 
      9 C9        -79.0890   29.1680  -69.8234 C.ar      11 UNK        -0.0687 
     10 C10       -78.7132   27.8224  -69.8868 C.ar      11 UNK        -0.0823 
     11 C11       -77.3949   27.4696  -70.1958 C.ar      11 UNK        -0.0830 
     12 C12       -76.4486   28.4760  -70.4222 C.ar      11 UNK        -0.1021 
     13 C13       -76.8160   29.8266  -70.3795 C.ar      11 UNK        -0.0753 
     14 C14       -78.1372   30.1602  -70.0720 C.ar      11 UNK        -0.0933 
     15 C15       -75.8085   30.9474  -70.6367 C.3       11 UNK         0.0166 
     16 S16       -74.6345   30.6249  -71.9962 S.3       11 UNK        -0.2615 
     17 C17       -75.7578   30.1665  -73.3614 C.3       11 UNK        -0.0865 
     18 CA        -75.1384   30.1504  -74.7916 C.3       10 UNK         0.0862 
     19 C         -75.2257   31.4974  -75.5724 C.2       10 UNK         0.5551 
     20 N         -74.5381   31.6304  -76.6998 N.am      10 UNK        -0.7319 
     21 O         -75.9499   32.4123  -75.1875 O.2       10 UNK        -0.5018 
     22 N         -73.8711   29.3886  -74.8760 N.am      10 UNK        -0.4509 
     23 C         -72.6231   29.8557  -74.7070 C.2       10 UNK         0.4899 
     24 O         -72.3497   31.0515  -74.5982 O.2       10 UNK        -0.4839 
     25 CA        -71.4586   28.8520  -74.5968 C.3       9 UNK         0.0222 
     26 CB        -70.8390   28.9352  -73.1836 C.3       9 UNK        -0.1966 
     27 N         -71.7899   27.4536  -74.9093 N.am      9 UNK        -0.4218 
     28 C         -70.8693   26.5151  -75.1789 C.2       9 UNK         0.5020 
     29 O         -69.6682   26.7541  -75.3196 O.2       9 UNK        -0.5274 
     30 CA        -71.3479   25.0560  -75.2656 C.3       8 UNK         0.0270 
     31 CB        -71.8690   24.5573  -73.9062 C.3       8 UNK        -0.1976 
     32 N         -72.3592   24.8431  -76.2993 N.am      8 UNK        -0.4313 
     33 C         -72.1126   24.8463  -77.6168 C.2       8 UNK         0.5041 
     34 O         -70.9943   25.0095  -78.1069 O.2       8 UNK        -0.5577 
     35 CA        -73.3140   24.6241  -78.5530 C.3       7 UNK         0.0284 
     36 CB        -73.5836   23.1229  -78.7443 C.3       7 UNK        -0.1958 
     37 N         -74.5310   25.2867  -78.0813 N.am      7 UNK        -0.4454 
     38 C         -74.6828   26.6161  -78.0053 C.2       7 UNK         0.5089 
     39 O         -73.8491   27.4296  -78.4043 O.2       7 UNK        -0.5125 
     40 CA        -75.9646   27.1290  -77.3331 C.3       6 UNK         0.0408 
     41 CB        -77.1348   27.1547  -78.3272 C.3       6 UNK        -0.1791 
     42 N         -76.3438   26.3638  -76.1418 N.am      6 UNK        -0.4762 
     43 C         -75.5972   26.2053  -75.0389 C.2       6 UNK         0.5007 
     44 O         -74.4854   26.7094  -74.8873 O.2       6 UNK        -0.5032 
     45 CA        -76.1567   25.2888  -73.9360 C.3       5 UNK         0.0783 
     46 C46       -77.2285   26.0319  -73.1093 C.3       11 UNK        -0.0857 
     47 S47       -77.8026   25.1104  -71.6459 S.3       11 UNK        -0.2512 
     48 C48       -76.9852   26.0025  -70.2785 C.3       11 UNK         0.0225 
     49 N         -76.6454   24.0296  -74.5024 N.am      5 UNK        -0.4615 
     50 C         -75.8706   23.1181  -75.1061 C.2       4 UNK         0.5053 
     51 O         -74.6483   23.2180  -75.2083 O.2       4 UNK        -0.5105 
     52 CA        -76.5868   21.9142  -75.7387 C.3       4 UNK         0.0263 
     53 CB        -76.8990   20.8492  -74.6755 C.3       4 UNK        -0.1981 
     54 N         -77.8201   22.2973  -76.4308 N.am      4 UNK        -0.4224 
     55 C         -77.8644   23.0609  -77.5328 C.2       3 UNK         0.4895 
     56 O         -76.8660   23.4824  -78.1166 O.2       3 UNK        -0.5091 
     57 CA        -79.2627   23.4633  -78.0368 C.3       3 UNK         0.0250 
     58 CB        -79.8695   22.3486  -78.9036 C.3       3 UNK        -0.1996 
     59 N         -80.1919   23.8131  -76.9539 N.am      3 UNK        -0.4254 
     60 C         -79.9896   24.8148  -76.0872 C.2       2 UNK         0.5004 
     61 O         -79.0039   25.5527  -76.1208 O.2       2 UNK        -0.5226 
     62 CA        -81.0209   24.9944  -74.9695 C.3       2 UNK         0.0269 
     63 CB        -80.9373   23.8312  -73.9595 C.3       2 UNK        -0.1926 
     64 N         -80.7514   26.2635  -74.2954 N.am      2 UNK        -0.4687 
     65 C         -81.5798   26.9124  -73.4748 C.2       1 UNK         0.5165 
     66 O         -82.7228   26.5221  -73.2266 O.2       1 UNK        -0.5079 
     67 H67       -78.7731   31.1353  -75.3800 H         1 UNK         0.0900 
     68 H68       -80.5174   31.0603  -75.6442 H         1 UNK         0.0900 
     69 H69       -79.4331   30.0576  -76.6130 H         1 UNK         0.0900 
     70 H70       -81.5700   29.8685  -74.0538 H         1 UNK         0.2959 
     71 H71       -80.0971   27.9711  -72.3734 H         1 UNK         0.1079 
     72 H72       -82.9806   28.9664  -72.1490 H         1 UNK         0.0837 
     73 H73       -82.1626   27.9686  -70.9803 H         1 UNK         0.0837 
     74 H74       -80.4803   30.3313  -68.6889 H         1 UNK         0.0685 
     75 H75       -81.0675   28.7303  -69.0454 H         1 UNK         0.0685 
     76 H76       -79.4444   27.0473  -69.7014 H         1 UNK         0.1434 
     77 H77       -75.4257   28.2088  -70.6495 H         1 UNK         0.1329 
     78 H78       -78.4327   31.1996  -70.0244 H         1 UNK         0.1335 
     79 H79       -75.2417   31.1227  -69.7216 H         1 UNK         0.0680 
     80 H80       -76.3288   31.8803  -70.8601 H         1 UNK         0.0680 
     81 H81       -76.6488   30.7959  -73.3231 H         1 UNK         0.1032 
     82 H82       -76.1246   29.1643  -73.1441 H         1 UNK         0.1032 
     83 H83       -75.8397   29.5390  -75.3557 H         1 UNK         0.0461 
     84 H84       -74.5961   32.4933  -77.2166 H         1 UNK         0.3453 
     85 H85       -73.9333   30.8892  -77.0160 H         1 UNK         0.3453 
     86 H86       -74.0080   28.3858  -74.9623 H         1 UNK         0.2984 
     87 H87       -70.7120   29.1877  -75.3196 H         1 UNK         0.0554 
     88 H88       -69.9198   28.3550  -73.1067 H         1 UNK         0.0847 
     89 H89       -71.5314   28.5693  -72.4245 H         1 UNK         0.0847 
     90 H90       -70.5838   29.9628  -72.9208 H         1 UNK         0.0847 
     91 H91       -72.7645   27.1664  -74.8384 H         1 UNK         0.3141 
     92 H92       -70.4802   24.4442  -75.5222 H         1 UNK         0.0743 
     93 H93       -71.1202   24.6993  -73.1258 H         1 UNK         0.0784 
     94 H94       -72.7700   25.0837  -73.5923 H         1 UNK         0.0784 
     95 H95       -72.1024   23.4929  -73.9404 H         1 UNK         0.0784 
     96 H96       -73.3017   24.6430  -75.9820 H         1 UNK         0.3213 
     97 H97       -73.0579   25.0498  -79.5256 H         1 UNK         0.0855 
     98 H98       -72.6950   22.6109  -79.1159 H         1 UNK         0.0814 
     99 H99       -74.3821   22.9529  -79.4668 H         1 UNK         0.0814 
    100 H100      -73.8717   22.6412  -77.8094 H         1 UNK         0.0814 
    101 H101      -75.3039   24.6898  -77.7999 H         1 UNK         0.3105 
    102 H102      -75.7745   28.1554  -77.0256 H         1 UNK         0.0547 
    103 H103      -76.8872   27.7483  -79.2080 H         1 UNK         0.0837 
    104 H104      -77.3950   26.1533  -78.6697 H         1 UNK         0.0837 
    105 H105      -78.0247   27.5956  -77.8773 H         1 UNK         0.0837 
    106 H106      -77.2770   25.9511  -76.1552 H         1 UNK         0.3020 
    107 H107      -75.3250   25.0483  -73.2699 H         1 UNK         0.1245 
    108 H108      -78.1010   26.2295  -73.7266 H         1 UNK         0.0781 
    109 H109      -76.8618   27.0093  -72.7989 H         1 UNK         0.0781 
    110 H110      -75.9043   25.9060  -70.3922 H         1 UNK         0.0836 
    111 H111      -77.2365   25.5102  -69.3381 H         1 UNK         0.0836 
    112 H112      -77.6432   23.8886  -74.4830 H         1 UNK         0.3022 
    113 H113      -75.9098   21.4751  -76.4747 H         1 UNK         0.0747 
    114 H114      -77.3358   19.9569  -75.1244 H         1 UNK         0.0793 
    115 H115      -75.9899   20.5377  -74.1590 H         1 UNK         0.0793 
    116 H116      -77.5924   21.2195  -73.9193 H         1 UNK         0.0793 
    117 H117      -78.6910   21.9906  -76.0234 H         1 UNK         0.3047 
    118 H118      -79.1398   24.3498  -78.6626 H         1 UNK         0.0822 
    119 H119      -80.8143   22.6617  -79.3483 H         1 UNK         0.0807 
    120 H120      -80.0531   21.4401  -78.3287 H         1 UNK         0.0807 
    121 H121      -79.1999   22.0853  -79.7239 H         1 UNK         0.0807 
    122 H122      -81.0241   23.2471  -76.8669 H         1 UNK         0.2946 
    123 H123      -82.0156   25.0317  -75.4192 H         1 UNK         0.1144 
    124 H124      -81.6751   23.9382  -73.1643 H         1 UNK         0.0793 
    125 H125      -79.9539   23.7743  -73.4917 H         1 UNK         0.0793 
    126 H126      -81.1285   22.8709  -74.4395 H         1 UNK         0.0793 
    127 H127      -79.8596   26.6886  -74.5359 H         1 UNK         0.2896 
@<TRIPOS>BOND
     1    1    2 1    
     2    1   67 1    
     3    1   68 1    
     4    1   69 1    
     5    2    3 2    
     6    2    4 am   BACKBONE|DICT|INTERRES
     7    4    5 1    
     8    4   70 1    
     9    5    6 1    
    10    5   65 1    
    11    5   71 1    
    12    6    7 1    
    13    6   72 1    
    14    6   73 1    
    15    7    8 1    
    16    8    9 1    
    17    8   74 1    
    18    8   75 1    
    19    9   10 ar   
    20    9   14 ar   
    21   10   11 ar   
    22   10   76 1    
    23   11   12 ar   
    24   11   48 1    
    25   12   13 ar   
    26   12   77 1    
    27   13   14 ar   
    28   13   15 1    
    29   14   78 1    
    30   15   16 1    
    31   15   79 1    
    32   15   80 1    
    33   16   17 1    
    34   17   18 1    
    35   17   81 1    
    36   17   82 1    
    37   18   19 1    
    38   18   22 1    
    39   18   83 1    
    40   19   20 am   BACKBONE|DICT|INTERRES
    41   19   21 2    
    42   20   84 1    
    43   20   85 1    
    44   22   23 am   BACKBONE|DICT|INTERRES
    45   22   86 1    
    46   23   24 2    
    47   23   25 1    
    48   25   26 1    
    49   25   27 1    
    50   25   87 1    
    51   26   88 1    
    52   26   89 1    
    53   26   90 1    
    54   27   28 am   BACKBONE|DICT|INTERRES
    55   27   91 1    
    56   28   29 2    
    57   28   30 1    
    58   30   31 1    
    59   30   32 1    
    60   30   92 1    
    61   31   93 1    
    62   31   94 1    
    63   31   95 1    
    64   32   33 am   BACKBONE|DICT|INTERRES
    65   32   96 1    
    66   33   34 2    
    67   33   35 1    
    68   35   36 1    
    69   35   37 1    
    70   35   97 1    
    71   36   98 1    
    72   36   99 1    
    73   36  100 1    
    74   37   38 am   BACKBONE|DICT|INTERRES
    75   37  101 1    
    76   38   39 2    
    77   38   40 1    
    78   40   41 1    
    79   40   42 1    
    80   40  102 1    
    81   41  103 1    
    82   41  104 1    
    83   41  105 1    
    84   42   43 am   BACKBONE|DICT|INTERRES
    85   42  106 1    
    86   43   44 2    
    87   43   45 1    
    88   45   46 1    
    89   45   49 1    
    90   45  107 1    
    91   46   47 1    
    92   46  108 1    
    93   46  109 1    
    94   47   48 1    
    95   48  110 1    
    96   48  111 1    
    97   49   50 am   BACKBONE|DICT|INTERRES
    98   49  112 1    
    99   50   51 2    
   100   50   52 1    
   101   52   53 1    
   102   52   54 1    
   103   52  113 1    
   104   53  114 1    
   105   53  115 1    
   106   53  116 1    
   107   54   55 am   BACKBONE|DICT|INTERRES
   108   54  117 1    
   109   55   56 2    
   110   55   57 1    
   111   57   58 1    
   112   57   59 1    
   113   57  118 1    
   114   58  119 1    
   115   58  120 1    
   116   58  121 1    
   117   59   60 am   BACKBONE|DICT|INTERRES
   118   59  122 1    
   119   60   61 2    
   120   60   62 1    
   121   62   63 1    
   122   62   64 1    
   123   62  123 1    
   124   63  124 1    
   125   63  125 1    
   126   63  126 1    
   127   64   65 am   BACKBONE|DICT|INTERRES
   128   64  127 1    
   129   65   66 2    
@<TRIPOS>SUBSTRUCTURE
     1 UNK         1 GROUP             0       ****    0 ROOT    
