@<TRIPOS>MOLECULE
3R135
127   129    1
SMALL
USER_CHARGES


@<TRIPOS>ATOM
      1 CA        -76.7459   25.5550  -71.2176 C.3       0 UNK        -0.1998 
      2 C         -78.2382   25.2891  -71.0945 C.2       0 UNK         0.4909 
      3 O         -78.6292   24.2023  -70.6663 O.2       0 UNK        -0.5240 
      4 N         -79.0731   26.2653  -71.4727 N.am      1 UNK        -0.4739 
      5 CA        -80.5319   26.1191  -71.5623 C.3       1 UNK         0.0864 
      6 C6        -81.2590   27.4884  -71.5060 C.3       11 UNK        -0.0881 
      7 S7        -81.0076   28.3269  -69.9005 S.3       11 UNK        -0.2682 
      8 C8        -80.2691   29.9225  -70.3804 C.3       11 UNK         0.0289 
      9 C9        -78.9215   29.7437  -71.0616 C.ar      11 UNK        -0.0687 
     10 C10       -78.8116   29.9004  -72.4441 C.ar      11 UNK        -0.0823 
     11 C11       -77.5935   29.6749  -73.0859 C.ar      11 UNK        -0.0830 
     12 C12       -76.4752   29.3082  -72.3330 C.ar      11 UNK        -0.1021 
     13 C13       -76.5537   29.1980  -70.9373 C.ar      11 UNK        -0.0753 
     14 C14       -77.7878   29.4117  -70.3141 C.ar      11 UNK        -0.0933 
     15 C15       -75.3581   28.8225  -70.0573 C.3       11 UNK         0.0166 
     16 S16       -73.7476   28.6659  -70.9067 S.3       11 UNK        -0.2615 
     17 C17       -73.1848   30.4021  -71.0138 C.3       11 UNK        -0.0865 
     18 CA        -73.3591   31.0543  -72.4130 C.3       10 UNK         0.0862 
     19 C         -72.8456   32.5247  -72.3910 C.2       10 UNK         0.5551 
     20 N         -71.7893   32.8733  -73.1158 N.am      10 UNK        -0.7319 
     21 O         -73.4196   33.3640  -71.7015 O.2       10 UNK        -0.5018 
     22 N         -72.8031   30.2163  -73.4906 N.am      10 UNK        -0.4509 
     23 C         -73.0619   30.3556  -74.7960 C.2       10 UNK         0.4899 
     24 O         -73.8429   31.1903  -75.2522 O.2       10 UNK        -0.4839 
     25 CA        -72.3357   29.4034  -75.7642 C.3       9 UNK         0.0222 
     26 CB        -70.8395   29.7542  -75.8894 C.3       9 UNK        -0.1966 
     27 N         -72.5457   27.9769  -75.4769 N.am      9 UNK        -0.4218 
     28 C         -72.1325   27.2689  -74.4139 C.2       9 UNK         0.5020 
     29 O         -71.4365   27.7325  -73.5093 O.2       9 UNK        -0.5274 
     30 CA        -72.5839   25.8015  -74.3192 C.3       8 UNK         0.0270 
     31 CB        -73.8741   25.6898  -73.4895 C.3       8 UNK        -0.1976 
     32 N         -72.7865   25.1443  -75.6128 N.am      8 UNK        -0.4313 
     33 C         -71.8002   24.7678  -76.4395 C.2       8 UNK         0.5041 
     34 O         -70.6104   25.0178  -76.2440 O.2       8 UNK        -0.5577 
     35 CA        -72.2008   23.9561  -77.6809 C.3       7 UNK         0.0284 
     36 CB        -72.4671   22.4900  -77.2993 C.3       7 UNK        -0.1958 
     37 N         -73.3944   24.5127  -78.3168 N.am      7 UNK        -0.4454 
     38 C         -73.4005   25.2009  -79.4665 C.2       7 UNK         0.5089 
     39 O         -72.4034   25.3804  -80.1667 O.2       7 UNK        -0.5125 
     40 CA        -74.7464   25.8059  -79.9162 C.3       6 UNK         0.0408 
     41 CB        -75.4522   24.8642  -80.9045 C.3       6 UNK        -0.1791 
     42 N         -75.6602   26.1152  -78.8118 N.am      6 UNK        -0.4762 
     43 C         -75.4018   26.9824  -77.8217 C.2       6 UNK         0.5007 
     44 O         -74.3761   27.6577  -77.7563 O.2       6 UNK        -0.5032 
     45 CA        -76.4220   27.0728  -76.6720 C.3       5 UNK         0.0783 
     46 C46       -77.3946   28.2506  -76.9068 C.3       11 UNK        -0.0857 
     47 S47       -78.4410   28.5298  -75.4436 S.3       11 UNK        -0.2512 
     48 C48       -77.4888   29.8262  -74.5934 C.3       11 UNK         0.0225 
     49 N         -77.1439   25.8225  -76.4046 N.am      5 UNK        -0.4615 
     50 C         -76.6153   24.6151  -76.1658 C.2       4 UNK         0.5053 
     51 O         -75.4060   24.3837  -76.1963 O.2       4 UNK        -0.5105 
     52 CA        -77.5885   23.4695  -75.8437 C.3       4 UNK         0.0263 
     53 CB        -77.4230   23.0284  -74.3811 C.3       4 UNK        -0.1981 
     54 N         -78.9949   23.8105  -76.0904 N.am      4 UNK        -0.4224 
     55 C         -79.5711   23.8373  -77.3040 C.2       3 UNK         0.4895 
     56 O         -78.9545   23.6057  -78.3451 O.2       3 UNK        -0.5091 
     57 CA        -81.0749   24.1699  -77.3701 C.3       3 UNK         0.0250 
     58 CB        -81.7839   23.4581  -78.5378 C.3       3 UNK        -0.1996 
     59 N         -81.7305   23.8081  -76.1140 N.am      3 UNK        -0.4254 
     60 C         -82.4945   24.6152  -75.3693 C.2       2 UNK         0.5004 
     61 O         -82.8817   25.7285  -75.7284 O.2       2 UNK        -0.5226 
     62 CA        -82.8457   24.1188  -73.9503 C.3       2 UNK         0.0269 
     63 CB        -82.5188   22.6272  -73.7040 C.3       2 UNK        -0.1926 
     64 N         -82.2180   24.9368  -72.9006 N.am      2 UNK        -0.4687 
     65 C         -80.9284   25.3073  -72.8182 C.2       1 UNK         0.5165 
     66 O         -80.0809   25.0279  -73.6733 O.2       1 UNK        -0.5079 
     67 H67       -76.3030   25.6770  -70.2302 H         1 UNK         0.0900 
     68 H68       -76.5399   26.4485  -71.8052 H         1 UNK         0.0900 
     69 H69       -76.2550   24.7145  -71.7070 H         1 UNK         0.0900 
     70 H70       -78.7012   27.1421  -71.8107 H         1 UNK         0.2959 
     71 H71       -80.8619   25.5318  -70.7021 H         1 UNK         0.1079 
     72 H72       -82.3364   27.3640  -71.6271 H         1 UNK         0.0837 
     73 H73       -80.9424   28.1270  -72.3310 H         1 UNK         0.0837 
     74 H74       -80.9647   30.4605  -71.0265 H         1 UNK         0.0685 
     75 H75       -80.1442   30.5368  -69.4876 H         1 UNK         0.0685 
     76 H76       -79.6797   30.1718  -73.0295 H         1 UNK         0.1434 
     77 H77       -75.5455   29.1158  -72.8475 H         1 UNK         0.1329 
     78 H78       -77.8738   29.3014  -69.2414 H         1 UNK         0.1335 
     79 H79       -75.5744   27.8658  -69.5819 H         1 UNK         0.0680 
     80 H80       -75.2645   29.5446  -69.2451 H         1 UNK         0.0680 
     81 H81       -73.7029   30.9921  -70.2555 H         1 UNK         0.1032 
     82 H82       -72.1313   30.4170  -70.7285 H         1 UNK         0.1032 
     83 H83       -74.4295   31.1368  -72.6019 H         1 UNK         0.0461 
     84 H84       -71.4672   33.8280  -73.0953 H         1 UNK         0.3453 
     85 H85       -71.3128   32.1895  -73.6807 H         1 UNK         0.3453 
     86 H86       -72.1861   29.4583  -73.2099 H         1 UNK         0.2984 
     87 H87       -72.7796   29.5669  -76.7472 H         1 UNK         0.0554 
     88 H88       -70.7094   30.7896  -76.2066 H         1 UNK         0.0847 
     89 H89       -70.3484   29.1249  -76.6317 H         1 UNK         0.0847 
     90 H90       -70.3051   29.6360  -74.9467 H         1 UNK         0.0847 
     91 H91       -73.1138   27.5025  -76.1709 H         1 UNK         0.3141 
     92 H92       -71.7991   25.2559  -73.7908 H         1 UNK         0.0743 
     93 H93       -74.6986   26.2424  -73.9395 H         1 UNK         0.0784 
     94 H94       -74.1875   24.6514  -73.3799 H         1 UNK         0.0784 
     95 H95       -73.7257   26.0884  -72.4854 H         1 UNK         0.0784 
     96 H96       -73.7408   24.8600  -75.8307 H         1 UNK         0.3213 
     97 H97       -71.3563   23.9740  -78.3734 H         1 UNK         0.0855 
     98 H98       -71.5953   22.0484  -76.8146 H         1 UNK         0.0814 
     99 H99       -72.6872   21.8874  -78.1805 H         1 UNK         0.0814 
    100 H100      -73.3079   22.3942  -76.6109 H         1 UNK         0.0814 
    101 H101      -74.2614   24.4380  -77.7943 H         1 UNK         0.3105 
    102 H102      -74.5264   26.7420  -80.4336 H         1 UNK         0.0547 
    103 H103      -74.8056   24.6317  -81.7519 H         1 UNK         0.0837 
    104 H104      -75.7271   23.9185  -80.4354 H         1 UNK         0.0837 
    105 H105      -76.3589   25.3162  -81.3067 H         1 UNK         0.0837 
    106 H106      -76.5235   25.5908  -78.7732 H         1 UNK         0.3020 
    107 H107      -75.8413   27.2920  -75.7742 H         1 UNK         0.1245 
    108 H108      -78.0438   28.0486  -77.7609 H         1 UNK         0.0781 
    109 H109      -76.8575   29.1710  -77.1468 H         1 UNK         0.0781 
    110 H110      -77.8624   30.8060  -74.8943 H         1 UNK         0.0836 
    111 H111      -76.4422   29.7902  -74.9006 H         1 UNK         0.0836 
    112 H112      -78.1458   25.9136  -76.3227 H         1 UNK         0.3022 
    113 H113      -77.3172   22.6275  -76.4840 H         1 UNK         0.0747 
    114 H114      -76.3974   22.7164  -74.1783 H         1 UNK         0.0793 
    115 H115      -77.6596   23.8369  -73.6898 H         1 UNK         0.0793 
    116 H116      -78.0714   22.1851  -74.1436 H         1 UNK         0.0793 
    117 H117      -79.5324   24.1057  -75.2771 H         1 UNK         0.3047 
    118 H118      -81.1415   25.2479  -77.5317 H         1 UNK         0.0822 
    119 H119      -81.7006   22.3736  -78.4579 H         1 UNK         0.0807 
    120 H120      -81.3547   23.7506  -79.4970 H         1 UNK         0.0807 
    121 H121      -82.8437   23.7115  -78.5697 H         1 UNK         0.0807 
    122 H122      -81.4638   22.9156  -75.7218 H         1 UNK         0.2946 
    123 H123      -83.9253   24.2432  -73.8491 H         1 UNK         0.1144 
    124 H124      -82.9990   21.9862  -74.4448 H         1 UNK         0.0793 
    125 H125      -81.4464   22.4285  -73.7280 H         1 UNK         0.0793 
    126 H126      -82.8848   22.3070  -72.7283 H         1 UNK         0.0793 
    127 H127      -82.8441   25.2408  -72.1678 H         1 UNK         0.2896 
@<TRIPOS>BOND
     1    1    2 1    
     2    1   67 1    
     3    1   68 1    
     4    1   69 1    
     5    2    3 2    
     6    2    4 am   BACKBONE|DICT|INTERRES
     7    4    5 1    
     8    4   70 1    
     9    5    6 1    
    10    5   65 1    
    11    5   71 1    
    12    6    7 1    
    13    6   72 1    
    14    6   73 1    
    15    7    8 1    
    16    8    9 1    
    17    8   74 1    
    18    8   75 1    
    19    9   10 ar   
    20    9   14 ar   
    21   10   11 ar   
    22   10   76 1    
    23   11   12 ar   
    24   11   48 1    
    25   12   13 ar   
    26   12   77 1    
    27   13   14 ar   
    28   13   15 1    
    29   14   78 1    
    30   15   16 1    
    31   15   79 1    
    32   15   80 1    
    33   16   17 1    
    34   17   18 1    
    35   17   81 1    
    36   17   82 1    
    37   18   19 1    
    38   18   22 1    
    39   18   83 1    
    40   19   20 am   BACKBONE|DICT|INTERRES
    41   19   21 2    
    42   20   84 1    
    43   20   85 1    
    44   22   23 am   BACKBONE|DICT|INTERRES
    45   22   86 1    
    46   23   24 2    
    47   23   25 1    
    48   25   26 1    
    49   25   27 1    
    50   25   87 1    
    51   26   88 1    
    52   26   89 1    
    53   26   90 1    
    54   27   28 am   BACKBONE|DICT|INTERRES
    55   27   91 1    
    56   28   29 2    
    57   28   30 1    
    58   30   31 1    
    59   30   32 1    
    60   30   92 1    
    61   31   93 1    
    62   31   94 1    
    63   31   95 1    
    64   32   33 am   BACKBONE|DICT|INTERRES
    65   32   96 1    
    66   33   34 2    
    67   33   35 1    
    68   35   36 1    
    69   35   37 1    
    70   35   97 1    
    71   36   98 1    
    72   36   99 1    
    73   36  100 1    
    74   37   38 am   BACKBONE|DICT|INTERRES
    75   37  101 1    
    76   38   39 2    
    77   38   40 1    
    78   40   41 1    
    79   40   42 1    
    80   40  102 1    
    81   41  103 1    
    82   41  104 1    
    83   41  105 1    
    84   42   43 am   BACKBONE|DICT|INTERRES
    85   42  106 1    
    86   43   44 2    
    87   43   45 1    
    88   45   46 1    
    89   45   49 1    
    90   45  107 1    
    91   46   47 1    
    92   46  108 1    
    93   46  109 1    
    94   47   48 1    
    95   48  110 1    
    96   48  111 1    
    97   49   50 am   BACKBONE|DICT|INTERRES
    98   49  112 1    
    99   50   51 2    
   100   50   52 1    
   101   52   53 1    
   102   52   54 1    
   103   52  113 1    
   104   53  114 1    
   105   53  115 1    
   106   53  116 1    
   107   54   55 am   BACKBONE|DICT|INTERRES
   108   54  117 1    
   109   55   56 2    
   110   55   57 1    
   111   57   58 1    
   112   57   59 1    
   113   57  118 1    
   114   58  119 1    
   115   58  120 1    
   116   58  121 1    
   117   59   60 am   BACKBONE|DICT|INTERRES
   118   59  122 1    
   119   60   61 2    
   120   60   62 1    
   121   62   63 1    
   122   62   64 1    
   123   62  123 1    
   124   63  124 1    
   125   63  125 1    
   126   63  126 1    
   127   64   65 am   BACKBONE|DICT|INTERRES
   128   64  127 1    
   129   65   66 2    
@<TRIPOS>SUBSTRUCTURE
     1 UNK         1 GROUP             0       ****    0 ROOT    
