@<TRIPOS>MOLECULE
3R135
127   129    1
SMALL
USER_CHARGES


@<TRIPOS>ATOM
      1 CA        -83.2584   28.1328  -69.9001 C.3       0 UNK        -0.1998 
      2 C         -82.7156   27.7066  -71.2561 C.2       0 UNK         0.4909 
      3 O         -81.7241   26.9805  -71.3026 O.2       0 UNK        -0.5240 
      4 N         -83.3615   28.1707  -72.3381 N.am      1 UNK        -0.4739 
      5 CA        -83.0799   27.9125  -73.7599 C.3       1 UNK         0.0864 
      6 C6        -82.1260   28.9588  -74.4146 C.3       11 UNK        -0.0881 
      7 S7        -80.3653   28.9080  -73.9417 S.3       11 UNK        -0.2682 
      8 C8        -80.2851   30.1016  -72.5652 C.3       11 UNK         0.0289 
      9 C9        -78.9558   29.9775  -71.8355 C.ar      11 UNK        -0.0687 
     10 C10       -78.5690   28.7424  -71.3109 C.ar      11 UNK        -0.0823 
     11 C11       -77.2952   28.5648  -70.7662 C.ar      11 UNK        -0.0830 
     12 C12       -76.4482   29.6702  -70.6418 C.ar      11 UNK        -0.1021 
     13 C13       -76.8323   30.9260  -71.1316 C.ar      11 UNK        -0.0753 
     14 C14       -78.0887   31.0682  -71.7314 C.ar      11 UNK        -0.0933 
     15 C15       -75.9063   32.1405  -71.0536 C.3       11 UNK         0.0166 
     16 S16       -74.1251   31.7747  -71.2399 S.3       11 UNK        -0.2615 
     17 C17       -74.0665   30.9040  -72.8462 C.3       11 UNK        -0.0865 
     18 CA        -72.8913   29.8961  -72.9439 C.3       10 UNK         0.0862 
     19 C         -73.0504   28.6742  -72.0013 C.2       10 UNK         0.5551 
     20 N         -72.4914   28.7343  -70.8007 N.am      10 UNK        -0.7319 
     21 O         -73.6859   27.6799  -72.3386 O.2       10 UNK        -0.5018 
     22 N         -72.7186   29.4376  -74.3242 N.am      10 UNK        -0.4509 
     23 C         -71.9070   29.9879  -75.2332 C.2       10 UNK         0.4899 
     24 O         -71.2349   31.0002  -75.0280 O.2       10 UNK        -0.4839 
     25 CA        -71.8421   29.2820  -76.6020 C.3       9 UNK         0.0222 
     26 CB        -70.6749   29.7679  -77.4873 C.3       9 UNK        -0.1966 
     27 N         -71.8403   27.8208  -76.4766 N.am      9 UNK        -0.4218 
     28 C         -70.9253   27.0444  -75.8757 C.2       9 UNK         0.5020 
     29 O         -69.8728   27.4649  -75.3931 O.2       9 UNK        -0.5274 
     30 CA        -71.2399   25.5390  -75.7688 C.3       8 UNK         0.0270 
     31 CB        -71.6381   25.1837  -74.3268 C.3       8 UNK        -0.1976 
     32 N         -72.2946   25.0865  -76.6825 N.am      8 UNK        -0.4313 
     33 C         -72.1554   24.9761  -78.0113 C.2       8 UNK         0.5041 
     34 O         -71.0965   25.1774  -78.6074 O.2       8 UNK        -0.5577 
     35 CA        -73.4137   24.6090  -78.8160 C.3       7 UNK         0.0284 
     36 CB        -73.6403   23.0888  -78.8060 C.3       7 UNK        -0.1958 
     37 N         -74.6191   25.2929  -78.3375 N.am      7 UNK        -0.4454 
     38 C         -74.8218   26.6177  -78.3907 C.2       7 UNK         0.5089 
     39 O         -74.0258   27.4135  -78.8881 O.2       7 UNK        -0.5125 
     40 CA        -76.1047   27.1548  -77.7304 C.3       6 UNK         0.0408 
     41 CB        -77.3224   26.9624  -78.6467 C.3       6 UNK        -0.1791 
     42 N         -76.3595   26.5469  -76.4219 N.am      6 UNK        -0.4762 
     43 C         -75.5482   26.6790  -75.3604 C.2       6 UNK         0.5007 
     44 O         -74.5341   27.3765  -75.3632 O.2       6 UNK        -0.5032 
     45 CA        -75.9049   25.8690  -74.0999 C.3       5 UNK         0.0783 
     46 C46       -76.9003   26.6588  -73.2245 C.3       11 UNK        -0.0857 
     47 S47       -77.2405   25.8676  -71.6095 S.3       11 UNK        -0.2512 
     48 C48       -76.7910   27.1705  -70.3962 C.3       11 UNK         0.0225 
     49 N         -76.3895   24.5305  -74.4466 N.am      5 UNK        -0.4615 
     50 C         -75.6258   23.5751  -74.9934 C.2       4 UNK         0.5053 
     51 O         -74.4279   23.7123  -75.2398 O.2       4 UNK        -0.5105 
     52 CA        -76.3311   22.2652  -75.3779 C.3       4 UNK         0.0263 
     53 CB        -76.5530   21.3816  -74.1399 C.3       4 UNK        -0.1981 
     54 N         -77.6085   22.4966  -76.0568 N.am      4 UNK        -0.4224 
     55 C         -77.7374   23.1101  -77.2426 C.2       3 UNK         0.4895 
     56 O         -76.7869   23.5035  -77.9161 O.2       3 UNK        -0.5091 
     57 CA        -79.1662   23.3596  -77.7517 C.3       3 UNK         0.0250 
     58 CB        -79.6414   22.1822  -78.6175 C.3       3 UNK        -0.1996 
     59 N         -80.1328   23.6016  -76.6772 N.am      3 UNK        -0.4254 
     60 C         -80.1085   24.6567  -75.8512 C.2       2 UNK         0.5004 
     61 O         -79.2530   25.5459  -75.8873 O.2       2 UNK        -0.5226 
     62 CA        -81.1893   24.6820  -74.7687 C.3       2 UNK         0.0269 
     63 CB        -80.6578   24.0587  -73.4649 C.3       2 UNK        -0.1926 
     64 N         -81.6103   26.0575  -74.5186 N.am      2 UNK        -0.4687 
     65 C         -82.8172   26.4170  -74.0675 C.2       1 UNK         0.5165 
     66 O         -83.7325   25.6108  -73.8810 O.2       1 UNK        -0.5079 
     67 H67       -82.4904   28.6680  -69.3421 H         1 UNK         0.0900 
     68 H68       -83.5515   27.2569  -69.3220 H         1 UNK         0.0900 
     69 H69       -84.1267   28.7850  -69.9919 H         1 UNK         0.0900 
     70 H70       -84.1801   28.7422  -72.1821 H         1 UNK         0.2959 
     71 H71       -84.0446   28.0886  -74.2395 H         1 UNK         0.1079 
     72 H72       -82.1674   28.8481  -75.4997 H         1 UNK         0.0837 
     73 H73       -82.5039   29.9639  -74.2213 H         1 UNK         0.0837 
     74 H74       -80.4251   31.1089  -72.9599 H         1 UNK         0.0685 
     75 H75       -81.0951   29.9266  -71.8592 H         1 UNK         0.0685 
     76 H76       -79.2327   27.8940  -71.4120 H         1 UNK         0.1434 
     77 H77       -75.4679   29.5403  -70.2048 H         1 UNK         0.1329 
     78 H78       -78.3849   32.0264  -72.1363 H         1 UNK         0.1335 
     79 H79       -76.0604   32.6307  -70.0916 H         1 UNK         0.0680 
     80 H80       -76.1783   32.8700  -71.8181 H         1 UNK         0.0680 
     81 H81       -73.9670   31.6655  -73.6211 H         1 UNK         0.1032 
     82 H82       -75.0113   30.3971  -73.0486 H         1 UNK         0.1032 
     83 H83       -71.9759   30.4113  -72.6444 H         1 UNK         0.0461 
     84 H84       -71.9910   29.5570  -70.5027 H         1 UNK         0.3453 
     85 H85       -72.5854   27.9489  -70.1770 H         1 UNK         0.3453 
     86 H86       -73.2441   28.6000  -74.5681 H         1 UNK         0.2984 
     87 H87       -72.7706   29.5345  -77.1161 H         1 UNK         0.0554 
     88 H88       -70.6681   29.2551  -78.4491 H         1 UNK         0.0847 
     89 H89       -69.7076   29.6035  -77.0118 H         1 UNK         0.0847 
     90 H90       -70.7583   30.8361  -77.6909 H         1 UNK         0.0847 
     91 H91       -72.6896   27.3674  -76.7899 H         1 UNK         0.3141 
     92 H92       -70.3240   24.9970  -76.0133 H         1 UNK         0.0743 
     93 H93       -72.5526   25.6958  -74.0260 H         1 UNK         0.0784 
     94 H94       -71.8003   24.1119  -74.2111 H         1 UNK         0.0784 
     95 H95       -70.8577   25.4718  -73.6212 H         1 UNK         0.0784 
     96 H96       -73.1795   24.8163  -76.2592 H         1 UNK         0.3213 
     97 H97       -73.2459   24.9203  -79.8493 H         1 UNK         0.0855 
     98 H98       -73.8523   22.7180  -77.8026 H         1 UNK         0.0814 
     99 H99       -72.7593   22.5595  -79.1716 H         1 UNK         0.0814 
    100 H100      -74.4760   22.8091  -79.4477 H         1 UNK         0.0814 
    101 H101      -75.3615   24.7016  -77.9684 H         1 UNK         0.3105 
    102 H102      -75.9730   28.2271  -77.5706 H         1 UNK         0.0547 
    103 H103      -77.1873   27.4981  -79.5870 H         1 UNK         0.0837 
    104 H104      -77.4835   25.9137  -78.8934 H         1 UNK         0.0837 
    105 H105      -78.2335   27.3421  -78.1837 H         1 UNK         0.0837 
    106 H106      -77.2042   25.9932  -76.3240 H         1 UNK         0.3020 
    107 H107      -74.9818   25.7453  -73.5298 H         1 UNK         0.1245 
    108 H108      -77.8519   26.7921  -73.7432 H         1 UNK         0.0781 
    109 H109      -76.5050   27.6622  -73.0601 H         1 UNK         0.0781 
    110 H110      -75.7038   27.1775  -70.3020 H         1 UNK         0.0836 
    111 H111      -77.1862   26.8967  -69.4174 H         1 UNK         0.0836 
    112 H112      -77.3718   24.3564  -74.2975 H         1 UNK         0.3022 
    113 H113      -75.6779   21.7279  -76.0690 H         1 UNK         0.0747 
    114 H114      -76.9756   20.4146  -74.4134 H         1 UNK         0.0793 
    115 H115      -75.6098   21.1874  -73.6272 H         1 UNK         0.0793 
    116 H116      -77.2246   21.8506  -73.4195 H         1 UNK         0.0793 
    117 H117      -78.4448   22.1957  -75.5790 H         1 UNK         0.3047 
    118 H118      -79.1397   24.2528  -78.3788 H         1 UNK         0.0822 
    119 H119      -80.6172   22.3830  -79.0603 H         1 UNK         0.0807 
    120 H120      -79.7161   21.2587  -78.0419 H         1 UNK         0.0807 
    121 H121      -78.9474   21.9984  -79.4392 H         1 UNK         0.0807 
    122 H122      -80.8651   22.9139  -76.5697 H         1 UNK         0.2946 
    123 H123      -82.0459   24.1030  -75.1219 H         1 UNK         0.1144 
    124 H124      -79.8143   24.6243  -73.0661 H         1 UNK         0.0793 
    125 H125      -80.3232   23.0327  -73.6222 H         1 UNK         0.0793 
    126 H126      -81.4294   24.0330  -72.6951 H         1 UNK         0.0793 
    127 H127      -80.8983   26.7671  -74.6545 H         1 UNK         0.2896 
@<TRIPOS>BOND
     1    1    2 1    
     2    1   67 1    
     3    1   68 1    
     4    1   69 1    
     5    2    3 2    
     6    2    4 am   BACKBONE|DICT|INTERRES
     7    4    5 1    
     8    4   70 1    
     9    5    6 1    
    10    5   65 1    
    11    5   71 1    
    12    6    7 1    
    13    6   72 1    
    14    6   73 1    
    15    7    8 1    
    16    8    9 1    
    17    8   74 1    
    18    8   75 1    
    19    9   10 ar   
    20    9   14 ar   
    21   10   11 ar   
    22   10   76 1    
    23   11   12 ar   
    24   11   48 1    
    25   12   13 ar   
    26   12   77 1    
    27   13   14 ar   
    28   13   15 1    
    29   14   78 1    
    30   15   16 1    
    31   15   79 1    
    32   15   80 1    
    33   16   17 1    
    34   17   18 1    
    35   17   81 1    
    36   17   82 1    
    37   18   19 1    
    38   18   22 1    
    39   18   83 1    
    40   19   20 am   BACKBONE|DICT|INTERRES
    41   19   21 2    
    42   20   84 1    
    43   20   85 1    
    44   22   23 am   BACKBONE|DICT|INTERRES
    45   22   86 1    
    46   23   24 2    
    47   23   25 1    
    48   25   26 1    
    49   25   27 1    
    50   25   87 1    
    51   26   88 1    
    52   26   89 1    
    53   26   90 1    
    54   27   28 am   BACKBONE|DICT|INTERRES
    55   27   91 1    
    56   28   29 2    
    57   28   30 1    
    58   30   31 1    
    59   30   32 1    
    60   30   92 1    
    61   31   93 1    
    62   31   94 1    
    63   31   95 1    
    64   32   33 am   BACKBONE|DICT|INTERRES
    65   32   96 1    
    66   33   34 2    
    67   33   35 1    
    68   35   36 1    
    69   35   37 1    
    70   35   97 1    
    71   36   98 1    
    72   36   99 1    
    73   36  100 1    
    74   37   38 am   BACKBONE|DICT|INTERRES
    75   37  101 1    
    76   38   39 2    
    77   38   40 1    
    78   40   41 1    
    79   40   42 1    
    80   40  102 1    
    81   41  103 1    
    82   41  104 1    
    83   41  105 1    
    84   42   43 am   BACKBONE|DICT|INTERRES
    85   42  106 1    
    86   43   44 2    
    87   43   45 1    
    88   45   46 1    
    89   45   49 1    
    90   45  107 1    
    91   46   47 1    
    92   46  108 1    
    93   46  109 1    
    94   47   48 1    
    95   48  110 1    
    96   48  111 1    
    97   49   50 am   BACKBONE|DICT|INTERRES
    98   49  112 1    
    99   50   51 2    
   100   50   52 1    
   101   52   53 1    
   102   52   54 1    
   103   52  113 1    
   104   53  114 1    
   105   53  115 1    
   106   53  116 1    
   107   54   55 am   BACKBONE|DICT|INTERRES
   108   54  117 1    
   109   55   56 2    
   110   55   57 1    
   111   57   58 1    
   112   57   59 1    
   113   57  118 1    
   114   58  119 1    
   115   58  120 1    
   116   58  121 1    
   117   59   60 am   BACKBONE|DICT|INTERRES
   118   59  122 1    
   119   60   61 2    
   120   60   62 1    
   121   62   63 1    
   122   62   64 1    
   123   62  123 1    
   124   63  124 1    
   125   63  125 1    
   126   63  126 1    
   127   64   65 am   BACKBONE|DICT|INTERRES
   128   64  127 1    
   129   65   66 2    
@<TRIPOS>SUBSTRUCTURE
     1 UNK         1 GROUP             0       ****    0 ROOT    
