@<TRIPOS>MOLECULE
3R135
127   129    1
SMALL
USER_CHARGES


@<TRIPOS>ATOM
      1 CA        -82.4825   30.7853  -75.2121 C.3       0 UNK        -0.1998 
      2 C         -82.5941   29.5550  -74.3237 C.2       0 UNK         0.4909 
      3 O         -83.7074   29.1215  -74.0234 O.2       0 UNK        -0.5240 
      4 N         -81.4480   28.9998  -73.9051 N.am      1 UNK        -0.4739 
      5 CA        -81.3089   27.8011  -73.0643 C.3       1 UNK         0.0864 
      6 C6        -81.8687   27.9825  -71.6187 C.3       11 UNK        -0.0881 
      7 S7        -81.2578   29.4832  -70.7670 S.3       11 UNK        -0.2682 
      8 C8        -80.0252   28.8202  -69.6008 C.3       11 UNK         0.0289 
      9 C9        -78.7117   28.5068  -70.2995 C.ar      11 UNK        -0.0687 
     10 C10       -78.4915   27.2387  -70.8414 C.ar      11 UNK        -0.0823 
     11 C11       -77.3119   26.9608  -71.5356 C.ar      11 UNK        -0.0830 
     12 C12       -76.3213   27.9399  -71.6340 C.ar      11 UNK        -0.1021 
     13 C13       -76.5262   29.2110  -71.0907 C.ar      11 UNK        -0.0753 
     14 C14       -77.7246   29.4906  -70.4252 C.ar      11 UNK        -0.0933 
     15 C15       -75.4607   30.2831  -71.2547 C.3       11 UNK         0.0166 
     16 S16       -75.2850   30.7510  -73.0039 S.3       11 UNK        -0.2615 
     17 C17       -74.0321   32.0767  -72.9088 C.3       11 UNK        -0.0865 
     18 CA        -72.5695   31.6061  -73.1488 C.3       10 UNK         0.0862 
     19 C         -71.9012   31.0104  -71.8730 C.2       10 UNK         0.5551 
     20 N         -71.1870   29.8933  -71.9433 N.am      10 UNK        -0.7319 
     21 O         -72.0191   31.5840  -70.7930 O.2       10 UNK        -0.5018 
     22 N         -72.4637   30.7564  -74.3449 N.am      10 UNK        -0.4509 
     23 C         -71.4289   30.7268  -75.1899 C.2       10 UNK         0.4899 
     24 O         -70.4599   31.4847  -75.1187 O.2       10 UNK        -0.4839 
     25 CA        -71.4942   29.6399  -76.2806 C.3       9 UNK         0.0222 
     26 CB        -70.2168   29.5788  -77.1439 C.3       9 UNK        -0.1966 
     27 N         -71.8080   28.3077  -75.7454 N.am      9 UNK        -0.4218 
     28 C         -71.1401   27.6315  -74.7958 C.2       9 UNK         0.5020 
     29 O         -70.2004   28.0928  -74.1477 O.2       9 UNK        -0.5274 
     30 CA        -71.5917   26.1872  -74.5256 C.3       8 UNK         0.0270 
     31 CB        -72.7269   26.1516  -73.4867 C.3       8 UNK        -0.1976 
     32 N         -72.0077   25.5100  -75.7574 N.am      8 UNK        -0.4313 
     33 C         -71.1619   25.0167  -76.6753 C.2       8 UNK         0.5041 
     34 O         -69.9385   24.9950  -76.5351 O.2       8 UNK        -0.5577 
     35 CA        -71.7751   24.4532  -77.9708 C.3       7 UNK         0.0284 
     36 CB        -71.9901   22.9360  -77.8482 C.3       7 UNK        -0.1958 
     37 N         -73.0415   25.1007  -78.3237 N.am      7 UNK        -0.4454 
     38 C         -73.1342   26.3293  -78.8596 C.2       7 UNK         0.5089 
     39 O         -72.1602   26.9989  -79.2018 O.2       7 UNK        -0.5125 
     40 CA        -74.5453   26.9367  -79.0049 C.3       6 UNK         0.0408 
     41 CB        -75.0990   26.6770  -80.4143 C.3       6 UNK        -0.1791 
     42 N         -75.4968   26.4343  -78.0094 N.am      6 UNK        -0.4762 
     43 C         -75.3583   26.5675  -76.6823 C.2       6 UNK         0.5007 
     44 O         -74.4840   27.2646  -76.1674 O.2       6 UNK        -0.5032 
     45 CA        -76.2659   25.7101  -75.7768 C.3       5 UNK         0.0783 
     46 C46       -77.2013   26.5760  -74.9027 C.3       11 UNK        -0.0857 
     47 S47       -78.1554   25.5465  -73.7329 S.3       11 UNK        -0.2512 
     48 C48       -77.1399   25.6199  -72.2247 C.3       11 UNK         0.0225 
     49 N         -77.0039   24.6678  -76.4992 N.am      5 UNK        -0.4615 
     50 C         -76.4798   23.5725  -77.0581 C.2       4 UNK         0.5053 
     51 O         -75.2656   23.3913  -77.1646 O.2       4 UNK        -0.5105 
     52 CA        -77.4841   22.5155  -77.5684 C.3       4 UNK         0.0263 
     53 CB        -76.7852   21.2382  -78.0701 C.3       4 UNK        -0.1981 
     54 N         -78.4760   22.1490  -76.5465 N.am      4 UNK        -0.4224 
     55 C         -79.5157   22.9046  -76.1648 C.2       3 UNK         0.4895 
     56 O         -79.7863   23.9889  -76.6891 O.2       3 UNK        -0.5091 
     57 CA        -80.3661   22.3916  -74.9916 C.3       3 UNK         0.0250 
     58 CB        -79.5062   21.9534  -73.7847 C.3       3 UNK        -0.1996 
     59 N         -81.3065   23.4439  -74.6030 N.am      3 UNK        -0.4254 
     60 C         -82.4137   23.2850  -73.8723 C.2       2 UNK         0.5004 
     61 O         -82.7422   22.2101  -73.3657 O.2       2 UNK        -0.5226 
     62 CA        -83.3069   24.5286  -73.6834 C.3       2 UNK         0.0269 
     63 CB        -84.5437   24.2411  -72.8099 C.3       2 UNK        -0.1926 
     64 N         -82.5900   25.6731  -73.1098 N.am      2 UNK        -0.4687 
     65 C         -81.8557   26.5529  -73.8057 C.2       1 UNK         0.5165 
     66 O         -81.6099   26.4088  -75.0059 O.2       1 UNK        -0.5079 
     67 H67       -82.9534   30.5955  -76.1763 H         1 UNK         0.0900 
     68 H68       -81.4450   31.0673  -75.3910 H         1 UNK         0.0900 
     69 H69       -82.9875   31.6309  -74.7460 H         1 UNK         0.0900 
     70 H70       -80.5737   29.4024  -74.2111 H         1 UNK         0.2959 
     71 H71       -80.2353   27.6332  -72.9801 H         1 UNK         0.1079 
     72 H72       -82.9580   28.0499  -71.6405 H         1 UNK         0.0837 
     73 H73       -81.6335   27.1137  -71.0026 H         1 UNK         0.0837 
     74 H74       -80.4191   27.9348  -69.0996 H         1 UNK         0.0685 
     75 H75       -79.8549   29.5594  -68.8166 H         1 UNK         0.0685 
     76 H76       -79.2559   26.4781  -70.7628 H         1 UNK         0.1434 
     77 H77       -75.4054   27.7313  -72.1701 H         1 UNK         0.1329 
     78 H78       -77.8974   30.4770  -70.0170 H         1 UNK         0.1335 
     79 H79       -74.5094   29.9061  -70.8772 H         1 UNK         0.0680 
     80 H80       -75.7062   31.1676  -70.6649 H         1 UNK         0.0680 
     81 H81       -74.2905   32.8059  -73.6781 H         1 UNK         0.1032 
     82 H82       -74.1311   32.6194  -71.9667 H         1 UNK         0.1032 
     83 H83       -71.9963   32.5147  -73.3425 H         1 UNK         0.0461 
     84 H84       -70.7599   29.5358  -71.1040 H         1 UNK         0.3453 
     85 H85       -71.0115   29.4325  -72.8280 H         1 UNK         0.3453 
     86 H86       -73.2125   30.0890  -74.4657 H         1 UNK         0.2984 
     87 H87       -72.3232   29.9096  -76.9366 H         1 UNK         0.0554 
     88 H88       -70.3080   28.8307  -77.9317 H         1 UNK         0.0847 
     89 H89       -69.3375   29.3316  -76.5480 H         1 UNK         0.0847 
     90 H90       -70.0244   30.5368  -77.6283 H         1 UNK         0.0847 
     91 H91       -72.6422   27.8692  -76.1264 H         1 UNK         0.3141 
     92 H92       -70.7401   25.6460  -74.1070 H         1 UNK         0.0743 
     93 H93       -72.3947   26.5798  -72.5399 H         1 UNK         0.0784 
     94 H94       -73.5989   26.7218  -73.8052 H         1 UNK         0.0784 
     95 H95       -73.0481   25.1299  -73.2832 H         1 UNK         0.0784 
     96 H96       -72.9934   25.5216  -75.9731 H         1 UNK         0.3213 
     97 H97       -71.0606   24.6288  -78.7783 H         1 UNK         0.0855 
     98 H98       -72.6685   22.6870  -77.0314 H         1 UNK         0.0814 
     99 H99       -71.0464   22.4246  -77.6534 H         1 UNK         0.0814 
    100 H100      -72.4025   22.5168  -78.7661 H         1 UNK         0.0814 
    101 H101      -73.8905   24.6021  -78.0737 H         1 UNK         0.3105 
    102 H102      -74.4554   28.0159  -78.8640 H         1 UNK         0.0547 
    103 H103      -75.2302   25.6116  -80.6080 H         1 UNK         0.0837 
    104 H104      -76.0616   27.1674  -80.5603 H         1 UNK         0.0837 
    105 H105      -74.4216   27.0651  -81.1763 H         1 UNK         0.0837 
    106 H106      -76.2410   25.8405  -78.3463 H         1 UNK         0.3020 
    107 H107      -75.5834   25.1918  -75.0995 H         1 UNK         0.1245 
    108 H108      -77.9093   27.1231  -75.5278 H         1 UNK         0.0781 
    109 H109      -76.6374   27.3306  -74.3524 H         1 UNK         0.0781 
    110 H110      -77.4477   24.8204  -71.5492 H         1 UNK         0.0836 
    111 H111      -76.0937   25.4305  -72.4703 H         1 UNK         0.0836 
    112 H112      -78.0179   24.7295  -76.4611 H         1 UNK         0.3022 
    113 H113      -78.0090   22.9602  -78.4165 H         1 UNK         0.0747 
    114 H114      -76.0799   21.4662  -78.8706 H         1 UNK         0.0793 
    115 H115      -77.5039   20.5226  -78.4700 H         1 UNK         0.0793 
    116 H116      -76.2257   20.7449  -77.2741 H         1 UNK         0.0793 
    117 H117      -78.3036   21.2860  -76.0512 H         1 UNK         0.3047 
    118 H118      -80.9377   21.5353  -75.3553 H         1 UNK         0.0822 
    119 H119      -78.8549   21.1168  -74.0377 H         1 UNK         0.0807 
    120 H120      -80.1244   21.6227  -72.9504 H         1 UNK         0.0807 
    121 H121      -78.8733   22.7625  -73.4229 H         1 UNK         0.0807 
    122 H122      -81.1182   24.3534  -75.0188 H         1 UNK         0.2946 
    123 H123      -83.6688   24.8033  -74.6773 H         1 UNK         0.1144 
    124 H124      -84.2644   23.9496  -71.7967 H         1 UNK         0.0793 
    125 H125      -85.1408   23.4306  -73.2302 H         1 UNK         0.0793 
    126 H126      -85.1931   25.1142  -72.7418 H         1 UNK         0.0793 
    127 H127      -82.7253   25.8286  -72.1218 H         1 UNK         0.2896 
@<TRIPOS>BOND
     1    1    2 1    
     2    1   67 1    
     3    1   68 1    
     4    1   69 1    
     5    2    3 2    
     6    2    4 am   BACKBONE|DICT|INTERRES
     7    4    5 1    
     8    4   70 1    
     9    5    6 1    
    10    5   65 1    
    11    5   71 1    
    12    6    7 1    
    13    6   72 1    
    14    6   73 1    
    15    7    8 1    
    16    8    9 1    
    17    8   74 1    
    18    8   75 1    
    19    9   10 ar   
    20    9   14 ar   
    21   10   11 ar   
    22   10   76 1    
    23   11   12 ar   
    24   11   48 1    
    25   12   13 ar   
    26   12   77 1    
    27   13   14 ar   
    28   13   15 1    
    29   14   78 1    
    30   15   16 1    
    31   15   79 1    
    32   15   80 1    
    33   16   17 1    
    34   17   18 1    
    35   17   81 1    
    36   17   82 1    
    37   18   19 1    
    38   18   22 1    
    39   18   83 1    
    40   19   20 am   BACKBONE|DICT|INTERRES
    41   19   21 2    
    42   20   84 1    
    43   20   85 1    
    44   22   23 am   BACKBONE|DICT|INTERRES
    45   22   86 1    
    46   23   24 2    
    47   23   25 1    
    48   25   26 1    
    49   25   27 1    
    50   25   87 1    
    51   26   88 1    
    52   26   89 1    
    53   26   90 1    
    54   27   28 am   BACKBONE|DICT|INTERRES
    55   27   91 1    
    56   28   29 2    
    57   28   30 1    
    58   30   31 1    
    59   30   32 1    
    60   30   92 1    
    61   31   93 1    
    62   31   94 1    
    63   31   95 1    
    64   32   33 am   BACKBONE|DICT|INTERRES
    65   32   96 1    
    66   33   34 2    
    67   33   35 1    
    68   35   36 1    
    69   35   37 1    
    70   35   97 1    
    71   36   98 1    
    72   36   99 1    
    73   36  100 1    
    74   37   38 am   BACKBONE|DICT|INTERRES
    75   37  101 1    
    76   38   39 2    
    77   38   40 1    
    78   40   41 1    
    79   40   42 1    
    80   40  102 1    
    81   41  103 1    
    82   41  104 1    
    83   41  105 1    
    84   42   43 am   BACKBONE|DICT|INTERRES
    85   42  106 1    
    86   43   44 2    
    87   43   45 1    
    88   45   46 1    
    89   45   49 1    
    90   45  107 1    
    91   46   47 1    
    92   46  108 1    
    93   46  109 1    
    94   47   48 1    
    95   48  110 1    
    96   48  111 1    
    97   49   50 am   BACKBONE|DICT|INTERRES
    98   49  112 1    
    99   50   51 2    
   100   50   52 1    
   101   52   53 1    
   102   52   54 1    
   103   52  113 1    
   104   53  114 1    
   105   53  115 1    
   106   53  116 1    
   107   54   55 am   BACKBONE|DICT|INTERRES
   108   54  117 1    
   109   55   56 2    
   110   55   57 1    
   111   57   58 1    
   112   57   59 1    
   113   57  118 1    
   114   58  119 1    
   115   58  120 1    
   116   58  121 1    
   117   59   60 am   BACKBONE|DICT|INTERRES
   118   59  122 1    
   119   60   61 2    
   120   60   62 1    
   121   62   63 1    
   122   62   64 1    
   123   62  123 1    
   124   63  124 1    
   125   63  125 1    
   126   63  126 1    
   127   64   65 am   BACKBONE|DICT|INTERRES
   128   64  127 1    
   129   65   66 2    
@<TRIPOS>SUBSTRUCTURE
     1 UNK         1 GROUP             0       ****    0 ROOT    
