@<TRIPOS>MOLECULE
3R135
127   129    1
SMALL
USER_CHARGES


@<TRIPOS>ATOM
      1 CA        -81.9546   31.5371  -77.4267 C.3       0 UNK        -0.1998 
      2 C         -80.8644   30.5971  -76.9345 C.2       0 UNK         0.4909 
      3 O         -79.7572   30.6107  -77.4721 O.2       0 UNK        -0.5240 
      4 N         -81.1690   29.7839  -75.9138 N.am      1 UNK        -0.4739 
      5 CA        -80.2558   28.7923  -75.3316 C.3       1 UNK         0.0864 
      6 C6        -80.7669   28.3301  -73.9422 C.3       11 UNK        -0.0881 
      7 S7        -79.5390   27.3719  -72.9949 S.3       11 UNK        -0.2682 
      8 C8        -78.7957   28.6518  -71.9234 C.3       11 UNK         0.0289 
      9 C9        -77.5307   28.2237  -71.1701 C.ar      11 UNK        -0.0687 
     10 C10       -77.0722   26.8982  -71.1402 C.ar      11 UNK        -0.0823 
     11 C11       -75.9342   26.5470  -70.4084 C.ar      11 UNK        -0.0830 
     12 C12       -75.2423   27.5333  -69.7010 C.ar      11 UNK        -0.1021 
     13 C13       -75.6864   28.8589  -69.7127 C.ar      11 UNK        -0.0753 
     14 C14       -76.8241   29.1961  -70.4531 C.ar      11 UNK        -0.0933 
     15 C15       -74.9744   29.9057  -68.8661 C.3       11 UNK         0.0166 
     16 S16       -73.4989   30.5870  -69.6854 S.3       11 UNK        -0.2615 
     17 C17       -74.2173   31.8437  -70.8059 C.3       11 UNK        -0.0865 
     18 CA        -73.8608   31.6232  -72.2992 C.3       10 UNK         0.0862 
     19 C         -72.3674   31.9543  -72.6048 C.2       10 UNK         0.5551 
     20 N         -71.5544   31.0247  -73.0946 N.am      10 UNK        -0.7319 
     21 O         -71.9421   33.0894  -72.4031 O.2       10 UNK        -0.5018 
     22 N         -74.3178   30.3068  -72.7592 N.am      10 UNK        -0.4509 
     23 C         -74.4861   29.9522  -74.0358 C.2       10 UNK         0.4899 
     24 O         -74.3905   30.7209  -74.9945 O.2       10 UNK        -0.4839 
     25 CA        -74.8089   28.4710  -74.2703 C.3       9 UNK         0.0222 
     26 CB        -76.2517   28.3015  -74.7620 C.3       9 UNK        -0.1966 
     27 N         -73.8779   27.8343  -75.2080 N.am      9 UNK        -0.4218 
     28 C         -72.5516   27.7357  -75.0116 C.2       9 UNK         0.5020 
     29 O         -71.9825   28.2013  -74.0218 O.2       9 UNK        -0.5274 
     30 CA        -71.7046   26.9686  -76.0457 C.3       8 UNK         0.0270 
     31 CB        -70.9109   25.8361  -75.3688 C.3       8 UNK        -0.1976 
     32 N         -72.5023   26.3938  -77.1303 N.am      8 UNK        -0.4313 
     33 C         -72.6841   26.9615  -78.3306 C.2       8 UNK         0.5041 
     34 O         -72.1663   28.0270  -78.6676 O.2       8 UNK        -0.5577 
     35 CA        -73.6028   26.2310  -79.3316 C.3       7 UNK         0.0284 
     36 CB        -72.7649   25.4339  -80.3445 C.3       7 UNK        -0.1958 
     37 N         -74.5844   25.3351  -78.7103 N.am      7 UNK        -0.4454 
     38 C         -75.5446   25.7225  -77.8597 C.2       7 UNK         0.5089 
     39 O         -75.7079   26.8932  -77.5220 O.2       7 UNK        -0.5125 
     40 CA        -76.4332   24.6261  -77.2393 C.3       6 UNK         0.0408 
     41 CB        -76.4234   23.2929  -78.0181 C.3       6 UNK        -0.1791 
     42 N         -76.1154   24.3819  -75.8275 N.am      6 UNK        -0.4762 
     43 C         -74.9124   24.1020  -75.2959 C.2       6 UNK         0.5007 
     44 O         -73.8668   24.0724  -75.9474 O.2       6 UNK        -0.5032 
     45 CA        -74.8539   23.7963  -73.7832 C.3       5 UNK         0.0783 
     46 C46       -74.4703   25.0694  -72.9955 C.3       11 UNK        -0.0857 
     47 S47       -73.9778   24.7378  -71.2726 S.3       11 UNK        -0.2512 
     48 C48       -75.4961   25.0894  -70.3289 C.3       11 UNK         0.0225 
     49 N         -76.1074   23.2232  -73.2891 N.am      5 UNK        -0.4615 
     50 C         -76.5808   22.0079  -73.5862 C.2       4 UNK         0.5053 
     51 O         -75.9690   21.1738  -74.2537 O.2       4 UNK        -0.5105 
     52 CA        -77.9897   21.6741  -73.0617 C.3       4 UNK         0.0263 
     53 CB        -78.2937   22.3083  -71.6850 C.3       4 UNK        -0.1981 
     54 N         -79.0465   22.0066  -74.0269 N.am      4 UNK        -0.4224 
     55 C         -79.3027   23.2029  -74.5777 C.2       3 UNK         0.4895 
     56 O         -78.6360   24.2205  -74.3735 O.2       3 UNK        -0.5091 
     57 CA        -80.5327   23.2776  -75.4892 C.3       3 UNK         0.0250 
     58 CB        -81.8273   23.2827  -74.6521 C.3       3 UNK        -0.1996 
     59 N         -80.4549   24.4947  -76.2923 N.am      3 UNK        -0.4254 
     60 C         -81.1414   24.7491  -77.4113 C.2       2 UNK         0.5004 
     61 O         -81.9312   23.9479  -77.9148 O.2       2 UNK        -0.5226 
     62 CA        -80.9254   26.1310  -78.0672 C.3       2 UNK         0.0269 
     63 CB        -81.9242   26.4113  -79.2063 C.3       2 UNK        -0.1926 
     64 N         -80.9972   27.2322  -77.0995 N.am      2 UNK        -0.4687 
     65 C         -79.9971   27.6053  -76.2887 C.2       1 UNK         0.5165 
     66 O         -78.9038   27.0433  -76.2847 O.2       1 UNK        -0.5079 
     67 H67       -81.6250   32.5720  -77.3394 H         1 UNK         0.0900 
     68 H68       -82.8774   31.4264  -76.8576 H         1 UNK         0.0900 
     69 H69       -82.1766   31.3374  -78.4747 H         1 UNK         0.0900 
     70 H70       -82.0935   29.8263  -75.5080 H         1 UNK         0.2959 
     71 H71       -79.2931   29.2879  -75.1859 H         1 UNK         0.1079 
     72 H72       -81.0603   29.1942  -73.3437 H         1 UNK         0.0837 
     73 H73       -81.6680   27.7226  -74.0472 H         1 UNK         0.0837 
     74 H74       -78.5663   29.5276  -72.5318 H         1 UNK         0.0685 
     75 H75       -79.5444   28.9678  -71.1957 H         1 UNK         0.0685 
     76 H76       -77.6065   26.1218  -71.6675 H         1 UNK         0.1434 
     77 H77       -74.3709   27.2635  -69.1197 H         1 UNK         0.1329 
     78 H78       -77.1784   30.2179  -70.4511 H         1 UNK         0.1335 
     79 H79       -75.6548   30.7143  -68.5943 H         1 UNK         0.0680 
     80 H80       -74.6639   29.4514  -67.9239 H         1 UNK         0.0680 
     81 H81       -73.8897   32.8309  -70.4743 H         1 UNK         0.1032 
     82 H82       -75.3021   31.8539  -70.6959 H         1 UNK         0.1032 
     83 H83       -74.4321   32.3618  -72.8650 H         1 UNK         0.0461 
     84 H84       -70.5953   31.2646  -73.2862 H         1 UNK         0.3453 
     85 H85       -71.8827   30.0834  -73.2824 H         1 UNK         0.3453 
     86 H86       -74.3961   29.6038  -72.0373 H         1 UNK         0.2984 
     87 H87       -74.7170   27.9523  -73.3151 H         1 UNK         0.0554 
     88 H88       -76.9524   28.7796  -74.0808 H         1 UNK         0.0847 
     89 H89       -76.4017   28.7530  -75.7432 H         1 UNK         0.0847 
     90 H90       -76.5339   27.2506  -74.8289 H         1 UNK         0.0847 
     91 H91       -74.2806   27.4787  -76.0683 H         1 UNK         0.3141 
     92 H92       -70.9838   27.6806  -76.4531 H         1 UNK         0.0743 
     93 H93       -70.2498   26.2273  -74.5943 H         1 UNK         0.0784 
     94 H94       -71.5680   25.1057  -74.8962 H         1 UNK         0.0784 
     95 H95       -70.2848   25.3072  -76.0875 H         1 UNK         0.0784 
     96 H96       -72.9799   25.5199  -76.9205 H         1 UNK         0.3213 
     97 H97       -74.1583   26.9984  -79.8751 H         1 UNK         0.0855 
     98 H98       -72.0431   26.0793  -80.8473 H         1 UNK         0.0814 
     99 H99       -73.3915   24.9895  -81.1180 H         1 UNK         0.0814 
    100 H100      -72.2037   24.6325  -79.8622 H         1 UNK         0.0814 
    101 H101      -74.4890   24.3490  -78.9050 H         1 UNK         0.3105 
    102 H102      -77.4534   25.0101  -77.2638 H         1 UNK         0.0547 
    103 H103      -76.6720   23.4461  -79.0692 H         1 UNK         0.0837 
    104 H104      -75.4566   22.7906  -77.9706 H         1 UNK         0.0837 
    105 H105      -77.1660   22.6048  -77.6137 H         1 UNK         0.0837 
    106 H106      -76.9162   24.4128  -75.2000 H         1 UNK         0.3020 
    107 H107      -74.0663   23.0515  -73.6470 H         1 UNK         0.1245 
    108 H108      -73.6138   25.5588  -73.4590 H         1 UNK         0.0781 
    109 H109      -75.2864   25.7904  -73.0218 H         1 UNK         0.0781 
    110 H110      -75.3188   24.8315  -69.2838 H         1 UNK         0.0836 
    111 H111      -76.2918   24.4248  -70.6648 H         1 UNK         0.0836 
    112 H112      -76.7237   23.8531  -72.7984 H         1 UNK         0.3022 
    113 H113      -78.0176   20.5908  -72.9324 H         1 UNK         0.0747 
    114 H114      -79.2166   21.9049  -71.2683 H         1 UNK         0.0793 
    115 H115      -77.4995   22.0928  -70.9688 H         1 UNK         0.0793 
    116 H116      -78.4090   23.3913  -71.7380 H         1 UNK         0.0793 
    117 H117      -79.6410   21.2322  -74.2892 H         1 UNK         0.3047 
    118 H118      -80.5229   22.4121  -76.1551 H         1 UNK         0.0822 
    119 H119      -82.7141   23.3063  -75.2855 H         1 UNK         0.0807 
    120 H120      -81.8687   24.1471  -73.9877 H         1 UNK         0.0807 
    121 H121      -81.9026   22.3894  -74.0310 H         1 UNK         0.0807 
    122 H122      -79.7871   25.1832  -75.9523 H         1 UNK         0.2946 
    123 H123      -79.9244   26.1133  -78.5053 H         1 UNK         0.1144 
    124 H124      -81.7253   27.3726  -79.6806 H         1 UNK         0.0793 
    125 H125      -82.9539   26.4199  -78.8469 H         1 UNK         0.0793 
    126 H126      -81.8557   25.6500  -79.9847 H         1 UNK         0.0793 
    127 H127      -81.8750   27.7271  -77.0370 H         1 UNK         0.2896 
@<TRIPOS>BOND
     1    1    2 1    
     2    1   67 1    
     3    1   68 1    
     4    1   69 1    
     5    2    3 2    
     6    2    4 am   BACKBONE|DICT|INTERRES
     7    4    5 1    
     8    4   70 1    
     9    5    6 1    
    10    5   65 1    
    11    5   71 1    
    12    6    7 1    
    13    6   72 1    
    14    6   73 1    
    15    7    8 1    
    16    8    9 1    
    17    8   74 1    
    18    8   75 1    
    19    9   10 ar   
    20    9   14 ar   
    21   10   11 ar   
    22   10   76 1    
    23   11   12 ar   
    24   11   48 1    
    25   12   13 ar   
    26   12   77 1    
    27   13   14 ar   
    28   13   15 1    
    29   14   78 1    
    30   15   16 1    
    31   15   79 1    
    32   15   80 1    
    33   16   17 1    
    34   17   18 1    
    35   17   81 1    
    36   17   82 1    
    37   18   19 1    
    38   18   22 1    
    39   18   83 1    
    40   19   20 am   BACKBONE|DICT|INTERRES
    41   19   21 2    
    42   20   84 1    
    43   20   85 1    
    44   22   23 am   BACKBONE|DICT|INTERRES
    45   22   86 1    
    46   23   24 2    
    47   23   25 1    
    48   25   26 1    
    49   25   27 1    
    50   25   87 1    
    51   26   88 1    
    52   26   89 1    
    53   26   90 1    
    54   27   28 am   BACKBONE|DICT|INTERRES
    55   27   91 1    
    56   28   29 2    
    57   28   30 1    
    58   30   31 1    
    59   30   32 1    
    60   30   92 1    
    61   31   93 1    
    62   31   94 1    
    63   31   95 1    
    64   32   33 am   BACKBONE|DICT|INTERRES
    65   32   96 1    
    66   33   34 2    
    67   33   35 1    
    68   35   36 1    
    69   35   37 1    
    70   35   97 1    
    71   36   98 1    
    72   36   99 1    
    73   36  100 1    
    74   37   38 am   BACKBONE|DICT|INTERRES
    75   37  101 1    
    76   38   39 2    
    77   38   40 1    
    78   40   41 1    
    79   40   42 1    
    80   40  102 1    
    81   41  103 1    
    82   41  104 1    
    83   41  105 1    
    84   42   43 am   BACKBONE|DICT|INTERRES
    85   42  106 1    
    86   43   44 2    
    87   43   45 1    
    88   45   46 1    
    89   45   49 1    
    90   45  107 1    
    91   46   47 1    
    92   46  108 1    
    93   46  109 1    
    94   47   48 1    
    95   48  110 1    
    96   48  111 1    
    97   49   50 am   BACKBONE|DICT|INTERRES
    98   49  112 1    
    99   50   51 2    
   100   50   52 1    
   101   52   53 1    
   102   52   54 1    
   103   52  113 1    
   104   53  114 1    
   105   53  115 1    
   106   53  116 1    
   107   54   55 am   BACKBONE|DICT|INTERRES
   108   54  117 1    
   109   55   56 2    
   110   55   57 1    
   111   57   58 1    
   112   57   59 1    
   113   57  118 1    
   114   58  119 1    
   115   58  120 1    
   116   58  121 1    
   117   59   60 am   BACKBONE|DICT|INTERRES
   118   59  122 1    
   119   60   61 2    
   120   60   62 1    
   121   62   63 1    
   122   62   64 1    
   123   62  123 1    
   124   63  124 1    
   125   63  125 1    
   126   63  126 1    
   127   64   65 am   BACKBONE|DICT|INTERRES
   128   64  127 1    
   129   65   66 2    
@<TRIPOS>SUBSTRUCTURE
     1 UNK         1 GROUP             0       ****    0 ROOT    
