@<TRIPOS>MOLECULE
3R135
127   129    1
SMALL
USER_CHARGES


@<TRIPOS>ATOM
      1 CA        -80.5416   25.3927  -67.3895 C.3       0 UNK        -0.1998 
      2 C         -80.7122   25.0355  -68.8586 C.2       0 UNK         0.4909 
      3 O         -81.3918   24.0582  -69.1762 O.2       0 UNK        -0.5240 
      4 N         -80.1090   25.8251  -69.7554 N.am      1 UNK        -0.4739 
      5 CA        -80.1218   25.6012  -71.2054 C.3       1 UNK         0.0864 
      6 C6        -79.7628   26.8881  -71.9888 C.3       11 UNK        -0.0881 
      7 S7        -81.0642   28.1578  -71.8380 S.3       11 UNK        -0.2682 
      8 C8        -80.1133   29.6228  -71.3248 C.3       11 UNK         0.0289 
      9 C9        -79.1016   30.0481  -72.3805 C.ar      11 UNK        -0.0687 
     10 C10       -79.5323   30.5633  -73.6071 C.ar      11 UNK        -0.0823 
     11 C11       -78.6063   30.9575  -74.5784 C.ar      11 UNK        -0.0830 
     12 C12       -77.2381   30.8362  -74.3130 C.ar      11 UNK        -0.1021 
     13 C13       -76.7975   30.3260  -73.0881 C.ar      11 UNK        -0.0753 
     14 C14       -77.7323   29.9349  -72.1264 C.ar      11 UNK        -0.0933 
     15 C15       -75.3130   30.1794  -72.8026 C.3       11 UNK         0.0166 
     16 S16       -74.6031   31.7233  -72.1614 S.3       11 UNK        -0.2615 
     17 C17       -73.0970   31.1124  -71.3287 C.3       11 UNK        -0.0865 
     18 CA        -71.9085   30.9204  -72.3041 C.3       10 UNK         0.0862 
     19 C         -70.5646   30.8192  -71.5339 C.2       10 UNK         0.5551 
     20 N         -69.9018   31.9429  -71.2979 N.am      10 UNK        -0.7319 
     21 O         -70.1396   29.7441  -71.1142 O.2       10 UNK        -0.5018 
     22 N         -72.1152   29.7510  -73.1678 N.am      10 UNK        -0.4509 
     23 C         -71.5393   29.5690  -74.3577 C.2       10 UNK         0.4899 
     24 O         -70.8320   30.4154  -74.9059 O.2       10 UNK        -0.4839 
     25 CA        -71.7837   28.2330  -75.0827 C.3       9 UNK         0.0222 
     26 CB        -70.5934   27.2763  -74.8791 C.3       9 UNK        -0.1966 
     27 N         -73.0557   27.5503  -74.8009 N.am      9 UNK        -0.4218 
     28 C         -73.4845   26.9528  -73.6784 C.2       9 UNK         0.5020 
     29 O         -72.9307   27.0651  -72.5847 O.2       9 UNK        -0.5274 
     30 CA        -74.7323   26.0538  -73.8045 C.3       8 UNK         0.0270 
     31 CB        -76.0251   26.8398  -73.5351 C.3       8 UNK        -0.1976 
     32 N         -74.8233   25.3976  -75.1128 N.am      8 UNK        -0.4313 
     33 C         -73.9767   24.4542  -75.5542 C.2       8 UNK         0.5041 
     34 O         -73.0809   23.9585  -74.8702 O.2       8 UNK        -0.5577 
     35 CA        -74.1386   24.0081  -77.0161 C.3       7 UNK         0.0284 
     36 CB        -75.1914   22.8938  -77.1426 C.3       7 UNK        -0.1958 
     37 N         -74.4914   25.1352  -77.8833 N.am      7 UNK        -0.4454 
     38 C         -73.6107   26.0390  -78.3384 C.2       7 UNK         0.5089 
     39 O         -72.3974   25.9717  -78.1431 O.2       7 UNK        -0.5125 
     40 CA        -74.1740   27.2300  -79.1364 C.3       6 UNK         0.0408 
     41 CB        -74.1766   26.9127  -80.6400 C.3       6 UNK        -0.1791 
     42 N         -75.5234   27.6248  -78.7224 N.am      6 UNK        -0.4762 
     43 C         -75.8320   28.1671  -77.5342 C.2       6 UNK         0.5007 
     44 O         -74.9974   28.4316  -76.6707 O.2       6 UNK        -0.5032 
     45 CA        -77.3297   28.3943  -77.2375 C.3       5 UNK         0.0783 
     46 C46       -77.7554   29.8079  -77.6981 C.3       11 UNK        -0.0857 
     47 S47       -79.4346   30.2422  -77.1342 S.3       11 UNK        -0.2512 
     48 C48       -79.0924   31.5378  -75.8992 C.3       11 UNK         0.0225 
     49 N         -78.1774   27.3398  -77.8161 N.am      5 UNK        -0.4615 
     50 C         -78.0736   26.0377  -77.5245 C.2       4 UNK         0.5053 
     51 O         -77.2700   25.5857  -76.7027 O.2       4 UNK        -0.5105 
     52 CA        -78.9421   25.0749  -78.3415 C.3       4 UNK         0.0263 
     53 CB        -78.3931   24.9439  -79.7771 C.3       4 UNK        -0.1981 
     54 N         -78.9212   23.7794  -77.6716 N.am      4 UNK        -0.4224 
     55 C         -79.7186   22.7312  -77.9083 C.2       3 UNK         0.4895 
     56 O         -80.5928   22.7144  -78.7757 O.2       3 UNK        -0.5091 
     57 CA        -79.5108   21.4836  -77.0240 C.3       3 UNK         0.0250 
     58 CB        -78.6179   20.4618  -77.7472 C.3       3 UNK        -0.1996 
     59 N         -78.9339   21.7772  -75.7054 N.am      3 UNK        -0.4254 
     60 C         -79.5423   22.5021  -74.7563 C.2       2 UNK         0.5004 
     61 O         -80.6909   22.9420  -74.8712 O.2       2 UNK        -0.5226 
     62 CA        -78.7309   22.8264  -73.4895 C.3       2 UNK         0.0269 
     63 CB        -77.2721   23.2181  -73.8174 C.3       2 UNK        -0.1926 
     64 N         -79.4300   23.9188  -72.8178 N.am      2 UNK        -0.4687 
     65 C         -79.1895   24.4404  -71.6120 C.2       1 UNK         0.5165 
     66 O         -78.2809   24.0674  -70.8650 O.2       1 UNK        -0.5079 
     67 H67       -79.9329   26.2868  -67.2551 H         1 UNK         0.0900 
     68 H68       -80.0607   24.5721  -66.8577 H         1 UNK         0.0900 
     69 H69       -81.5139   25.5730  -66.9317 H         1 UNK         0.0900 
     70 H70       -79.5486   26.6019  -69.4373 H         1 UNK         0.2959 
     71 H71       -81.1354   25.3039  -71.4861 H         1 UNK         0.1079 
     72 H72       -79.6449   26.6857  -73.0554 H         1 UNK         0.0837 
     73 H73       -78.8022   27.2808  -71.6518 H         1 UNK         0.0837 
     74 H74       -80.8052   30.4459  -71.1411 H         1 UNK         0.0685 
     75 H75       -79.6236   29.4159  -70.3719 H         1 UNK         0.0685 
     76 H76       -80.5918   30.6525  -73.8056 H         1 UNK         0.1434 
     77 H77       -76.5127   31.1431  -75.0538 H         1 UNK         0.1329 
     78 H78       -77.3913   29.5413  -71.1787 H         1 UNK         0.1335 
     79 H79       -75.1481   29.3773  -72.0826 H         1 UNK         0.0680 
     80 H80       -74.7921   29.8921  -73.7168 H         1 UNK         0.0680 
     81 H81       -73.3121   30.1916  -70.7831 H         1 UNK         0.1032 
     82 H82       -72.8459   31.8531  -70.5666 H         1 UNK         0.1032 
     83 H83       -71.8541   31.8058  -72.9415 H         1 UNK         0.0461 
     84 H84       -69.0342   31.9023  -70.7859 H         1 UNK         0.3453 
     85 H85       -70.2460   32.8308  -71.6295 H         1 UNK         0.3453 
     86 H86       -72.5749   28.9479  -72.7508 H         1 UNK         0.2984 
     87 H87       -71.8275   28.4720  -76.1466 H         1 UNK         0.0554 
     88 H88       -70.7144   26.3657  -75.4667 H         1 UNK         0.0847 
     89 H89       -70.4775   26.9891  -73.8334 H         1 UNK         0.0847 
     90 H90       -69.6587   27.7430  -75.1926 H         1 UNK         0.0847 
     91 H91       -73.6944   27.5320  -75.5917 H         1 UNK         0.3141 
     92 H92       -74.6504   25.2705  -73.0480 H         1 UNK         0.0743 
     93 H93       -76.1359   27.6811  -74.2183 H         1 UNK         0.0784 
     94 H94       -76.9089   26.2112  -73.6380 H         1 UNK         0.0784 
     95 H95       -76.0335   27.2325  -72.5185 H         1 UNK         0.0784 
     96 H96       -75.5827   25.6858  -75.7226 H         1 UNK         0.3213 
     97 H97       -73.1806   23.6006  -77.3473 H         1 UNK         0.0855 
     98 H98       -76.1699   23.2122  -76.7886 H         1 UNK         0.0814 
     99 H99       -74.9030   22.0223  -76.5535 H         1 UNK         0.0814 
    100 H100      -75.2989   22.5641  -78.1761 H         1 UNK         0.0814 
    101 H101      -75.4755   25.2938  -78.0465 H         1 UNK         0.3105 
    102 H102      -73.5098   28.0809  -78.9694 H         1 UNK         0.0547 
    103 H103      -73.1773   26.6395  -80.9821 H         1 UNK         0.0837 
    104 H104      -74.8404   26.0806  -80.8782 H         1 UNK         0.0837 
    105 H105      -74.4924   27.7747  -81.2279 H         1 UNK         0.0837 
    106 H106      -76.2721   27.4474  -79.3762 H         1 UNK         0.3020 
    107 H107      -77.4448   28.3421  -76.1524 H         1 UNK         0.1245 
    108 H108      -77.0520   30.5613  -77.3392 H         1 UNK         0.0781 
    109 H109      -77.7337   29.8783  -78.7872 H         1 UNK         0.0781 
    110 H110      -80.0086   32.1059  -75.7310 H         1 UNK         0.0836 
    111 H111      -78.3699   32.2527  -76.2962 H         1 UNK         0.0836 
    112 H112      -78.8679   27.6434  -78.4879 H         1 UNK         0.3022 
    113 H113      -79.9666   25.4519  -78.3597 H         1 UNK         0.0747 
    114 H114      -79.0071   24.2757  -80.3807 H         1 UNK         0.0793 
    115 H115      -78.3804   25.9072  -80.2881 H         1 UNK         0.0793 
    116 H116      -77.3743   24.5539  -79.7848 H         1 UNK         0.0793 
    117 H117      -78.2554   23.7343  -76.9112 H         1 UNK         0.3047 
    118 H118      -80.4922   21.0309  -76.8663 H         1 UNK         0.0822 
    119 H119      -78.5288   19.5370  -77.1768 H         1 UNK         0.0807 
    120 H120      -77.6133   20.8512  -77.9179 H         1 UNK         0.0807 
    121 H121      -79.0347   20.1999  -78.7209 H         1 UNK         0.0807 
    122 H122      -78.0018   21.4305  -75.5315 H         1 UNK         0.2946 
    123 H123      -78.7430   21.9491  -72.8395 H         1 UNK         0.1144 
    124 H124      -76.7131   22.3789  -74.2317 H         1 UNK         0.0793 
    125 H125      -76.7255   23.5421  -72.9324 H         1 UNK         0.0793 
    126 H126      -77.2354   24.0295  -74.5425 H         1 UNK         0.0793 
    127 H127      -80.2282   24.2453  -73.3520 H         1 UNK         0.2896 
@<TRIPOS>BOND
     1    1    2 1    
     2    1   67 1    
     3    1   68 1    
     4    1   69 1    
     5    2    3 2    
     6    2    4 am   BACKBONE|DICT|INTERRES
     7    4    5 1    
     8    4   70 1    
     9    5    6 1    
    10    5   65 1    
    11    5   71 1    
    12    6    7 1    
    13    6   72 1    
    14    6   73 1    
    15    7    8 1    
    16    8    9 1    
    17    8   74 1    
    18    8   75 1    
    19    9   10 ar   
    20    9   14 ar   
    21   10   11 ar   
    22   10   76 1    
    23   11   12 ar   
    24   11   48 1    
    25   12   13 ar   
    26   12   77 1    
    27   13   14 ar   
    28   13   15 1    
    29   14   78 1    
    30   15   16 1    
    31   15   79 1    
    32   15   80 1    
    33   16   17 1    
    34   17   18 1    
    35   17   81 1    
    36   17   82 1    
    37   18   19 1    
    38   18   22 1    
    39   18   83 1    
    40   19   20 am   BACKBONE|DICT|INTERRES
    41   19   21 2    
    42   20   84 1    
    43   20   85 1    
    44   22   23 am   BACKBONE|DICT|INTERRES
    45   22   86 1    
    46   23   24 2    
    47   23   25 1    
    48   25   26 1    
    49   25   27 1    
    50   25   87 1    
    51   26   88 1    
    52   26   89 1    
    53   26   90 1    
    54   27   28 am   BACKBONE|DICT|INTERRES
    55   27   91 1    
    56   28   29 2    
    57   28   30 1    
    58   30   31 1    
    59   30   32 1    
    60   30   92 1    
    61   31   93 1    
    62   31   94 1    
    63   31   95 1    
    64   32   33 am   BACKBONE|DICT|INTERRES
    65   32   96 1    
    66   33   34 2    
    67   33   35 1    
    68   35   36 1    
    69   35   37 1    
    70   35   97 1    
    71   36   98 1    
    72   36   99 1    
    73   36  100 1    
    74   37   38 am   BACKBONE|DICT|INTERRES
    75   37  101 1    
    76   38   39 2    
    77   38   40 1    
    78   40   41 1    
    79   40   42 1    
    80   40  102 1    
    81   41  103 1    
    82   41  104 1    
    83   41  105 1    
    84   42   43 am   BACKBONE|DICT|INTERRES
    85   42  106 1    
    86   43   44 2    
    87   43   45 1    
    88   45   46 1    
    89   45   49 1    
    90   45  107 1    
    91   46   47 1    
    92   46  108 1    
    93   46  109 1    
    94   47   48 1    
    95   48  110 1    
    96   48  111 1    
    97   49   50 am   BACKBONE|DICT|INTERRES
    98   49  112 1    
    99   50   51 2    
   100   50   52 1    
   101   52   53 1    
   102   52   54 1    
   103   52  113 1    
   104   53  114 1    
   105   53  115 1    
   106   53  116 1    
   107   54   55 am   BACKBONE|DICT|INTERRES
   108   54  117 1    
   109   55   56 2    
   110   55   57 1    
   111   57   58 1    
   112   57   59 1    
   113   57  118 1    
   114   58  119 1    
   115   58  120 1    
   116   58  121 1    
   117   59   60 am   BACKBONE|DICT|INTERRES
   118   59  122 1    
   119   60   61 2    
   120   60   62 1    
   121   62   63 1    
   122   62   64 1    
   123   62  123 1    
   124   63  124 1    
   125   63  125 1    
   126   63  126 1    
   127   64   65 am   BACKBONE|DICT|INTERRES
   128   64  127 1    
   129   65   66 2    
@<TRIPOS>SUBSTRUCTURE
     1 UNK         1 GROUP             0       ****    0 ROOT    
