@<TRIPOS>MOLECULE
3R135
127   129    1
SMALL
USER_CHARGES


@<TRIPOS>ATOM
      1 CA        -83.6278   24.3781  -73.7046 C.3       0 UNK        -0.1998 
      2 C         -82.2748   25.0504  -73.8730 C.2       0 UNK         0.4909 
      3 O         -81.3195   24.3963  -74.2909 O.2       0 UNK        -0.5240 
      4 N         -82.1926   26.3558  -73.5769 N.am      1 UNK        -0.4739 
      5 CA        -80.9768   27.1898  -73.6034 C.3       1 UNK         0.0864 
      6 C6        -80.0063   26.8907  -72.4310 C.3       11 UNK        -0.0881 
      7 S7        -80.8181   27.0050  -70.7953 S.3       11 UNK        -0.2682 
      8 C8        -80.3228   28.6659  -70.2104 C.3       11 UNK         0.0289 
      9 C9        -78.8128   28.8665  -70.1038 C.ar      11 UNK        -0.0687 
     10 C10       -77.9740   27.8349  -69.6710 C.ar      11 UNK        -0.0823 
     11 C11       -76.5872   27.9974  -69.6709 C.ar      11 UNK        -0.0830 
     12 C12       -76.0348   29.2285  -70.0380 C.ar      11 UNK        -0.1021 
     13 C13       -76.8635   30.2822  -70.4327 C.ar      11 UNK        -0.0753 
     14 C14       -78.2492   30.0935  -70.4675 C.ar      11 UNK        -0.0933 
     15 C15       -76.2722   31.6249  -70.8326 C.3       11 UNK         0.0166 
     16 S16       -76.1461   31.7899  -72.6408 S.3       11 UNK        -0.2615 
     17 C17       -74.4401   31.2217  -72.9774 C.3       11 UNK        -0.0865 
     18 CA        -74.2918   30.4438  -74.3221 C.3       10 UNK         0.0862 
     19 C         -74.3409   31.3330  -75.6083 C.2       10 UNK         0.5551 
     20 N         -75.0940   32.4231  -75.6057 N.am      10 UNK        -0.7319 
     21 O         -73.7384   31.0179  -76.6327 O.2       10 UNK        -0.5018 
     22 N         -73.1343   29.5300  -74.3045 N.am      10 UNK        -0.4509 
     23 C         -71.8488   29.9074  -74.2365 C.2       10 UNK         0.4899 
     24 O         -71.4940   31.0812  -74.1198 O.2       10 UNK        -0.4839 
     25 CA        -70.7551   28.8258  -74.2845 C.3       9 UNK         0.0222 
     26 CB        -70.1214   28.6475  -72.8903 C.3       9 UNK        -0.1966 
     27 N         -71.1980   27.5222  -74.7959 N.am      9 UNK        -0.4218 
     28 C         -70.3792   26.6190  -75.3546 C.2       9 UNK         0.5020 
     29 O         -69.1936   26.8362  -75.6106 O.2       9 UNK        -0.5274 
     30 CA        -70.9546   25.2257  -75.6473 C.3       8 UNK         0.0270 
     31 CB        -71.2521   24.4747  -74.3366 C.3       8 UNK        -0.1976 
     32 N         -72.1719   25.2849  -76.4571 N.am      8 UNK        -0.4313 
     33 C         -72.2832   24.8324  -77.7148 C.2       8 UNK         0.5041 
     34 O         -71.3366   24.3846  -78.3643 O.2       8 UNK        -0.5577 
     35 CA        -73.6818   24.8416  -78.3649 C.3       7 UNK         0.0284 
     36 CB        -74.2168   23.4069  -78.5088 C.3       7 UNK        -0.1958 
     37 N         -74.6570   25.6376  -77.6173 N.am      7 UNK        -0.4454 
     38 C         -74.7538   26.9721  -77.7003 C.2       7 UNK         0.5089 
     39 O         -74.0988   27.6518  -78.4901 O.2       7 UNK        -0.5125 
     40 CA        -75.7084   27.6802  -76.7191 C.3       6 UNK         0.0408 
     41 CB        -77.0140   28.0598  -77.4236 C.3       6 UNK        -0.1791 
     42 N         -76.0065   26.9178  -75.4984 N.am      6 UNK        -0.4762 
     43 C         -75.0787   26.5387  -74.6073 C.2       6 UNK         0.5007 
     44 O         -73.8911   26.8505  -74.7051 O.2       6 UNK        -0.5032 
     45 CA        -75.4953   25.6425  -73.4293 C.3       5 UNK         0.0783 
     46 C46       -75.6606   26.5052  -72.1626 C.3       11 UNK        -0.0857 
     47 S47       -75.8621   25.5124  -70.6453 S.3       11 UNK        -0.2512 
     48 C48       -75.6909   26.8062  -69.3672 C.3       11 UNK         0.0225 
     49 N         -76.6596   24.7846  -73.6818 N.am      5 UNK        -0.4615 
     50 C         -76.7661   23.8797  -74.6647 C.2       4 UNK         0.5053 
     51 O         -75.9582   23.7836  -75.5894 O.2       4 UNK        -0.5105 
     52 CA        -77.9397   22.8889  -74.5795 C.3       4 UNK         0.0263 
     53 CB        -78.5207   22.7313  -73.1590 C.3       4 UNK        -0.1981 
     54 N         -79.0134   23.2664  -75.4937 N.am      4 UNK        -0.4224 
     55 C         -79.0819   22.9251  -76.7875 C.2       3 UNK         0.4895 
     56 O         -78.2325   22.2534  -77.3738 O.2       3 UNK        -0.5091 
     57 CA        -80.3264   23.3906  -77.5562 C.3       3 UNK         0.0250 
     58 CB        -81.5268   22.4783  -77.2509 C.3       3 UNK        -0.1996 
     59 N         -80.6708   24.7756  -77.2332 N.am      3 UNK        -0.4254 
     60 C         -80.2399   25.8394  -77.9245 C.2       2 UNK         0.5004 
     61 O         -79.5293   25.7595  -78.9269 O.2       2 UNK        -0.5226 
     62 CA        -80.6881   27.2330  -77.4450 C.3       2 UNK         0.0269 
     63 CB        -81.8457   27.7473  -78.3165 C.3       2 UNK        -0.1926 
     64 N         -81.0967   27.2825  -76.0398 N.am      2 UNK        -0.4687 
     65 C         -80.2791   27.1583  -74.9839 C.2       1 UNK         0.5165 
     66 O         -79.0610   26.9849  -75.0748 O.2       1 UNK        -0.5079 
     67 H67       -84.3868   25.0721  -73.3444 H         1 UNK         0.0900 
     68 H68       -83.5498   23.5591  -72.9903 H         1 UNK         0.0900 
     69 H69       -83.9639   23.9690  -74.6569 H         1 UNK         0.0900 
     70 H70       -83.0225   26.8290  -73.2469 H         1 UNK         0.2959 
     71 H71       -81.3143   28.2203  -73.4801 H         1 UNK         0.1079 
     72 H72       -79.5949   25.8864  -72.5298 H         1 UNK         0.0837 
     73 H73       -79.1506   27.5670  -72.4621 H         1 UNK         0.0837 
     74 H74       -80.7581   29.4071  -70.8825 H         1 UNK         0.0685 
     75 H75       -80.7666   28.8378  -69.2292 H         1 UNK         0.0685 
     76 H76       -78.3925   26.8768  -69.3953 H         1 UNK         0.1434 
     77 H77       -74.9614   29.3593  -70.0420 H         1 UNK         0.1329 
     78 H78       -78.8872   30.9029  -70.7958 H         1 UNK         0.1335 
     79 H79       -75.2959   31.7770  -70.3695 H         1 UNK         0.0680 
     80 H80       -76.9109   32.4250  -70.4551 H         1 UNK         0.0680 
     81 H81       -74.1355   30.5747  -72.1537 H         1 UNK         0.1032 
     82 H82       -73.7642   32.0781  -72.9464 H         1 UNK         0.1032 
     83 H83       -75.1534   29.7808  -74.4031 H         1 UNK         0.0461 
     84 H84       -75.6174   32.6714  -74.7783 H         1 UNK         0.3453 
     85 H85       -75.1472   32.9946  -76.4340 H         1 UNK         0.3453 
     86 H86       -73.3626   28.5508  -74.4372 H         1 UNK         0.2984 
     87 H87       -69.9899   29.2154  -74.9593 H         1 UNK         0.0554 
     88 H88       -69.2481   27.9961  -72.9278 H         1 UNK         0.0847 
     89 H89       -70.8296   28.2181  -72.1808 H         1 UNK         0.0847 
     90 H90       -69.7887   29.6031  -72.4825 H         1 UNK         0.0847 
     91 H91       -72.1721   27.2680  -74.6510 H         1 UNK         0.3141 
     92 H92       -70.1802   24.6633  -76.1735 H         1 UNK         0.0743 
     93 H93       -72.0285   24.9644  -73.7483 H         1 UNK         0.0784 
     94 H94       -71.5789   23.4536  -74.5341 H         1 UNK         0.0784 
     95 H95       -70.3600   24.4130  -73.7116 H         1 UNK         0.0784 
     96 H96       -72.9870   25.6950  -76.0158 H         1 UNK         0.3213 
     97 H97       -73.5737   25.2625  -79.3670 H         1 UNK         0.0855 
     98 H98       -74.3015   22.9086  -77.5423 H         1 UNK         0.0814 
     99 H99       -73.5528   22.8028  -79.1284 H         1 UNK         0.0814 
    100 H100      -75.2004   23.3932  -78.9789 H         1 UNK         0.0814 
    101 H101      -75.2287   25.1386  -76.9407 H         1 UNK         0.3105 
    102 H102      -75.2142   28.6031  -76.4190 H         1 UNK         0.0547 
    103 H103      -76.8210   28.6561  -78.3164 H         1 UNK         0.0837 
    104 H104      -77.5606   27.1710  -77.7353 H         1 UNK         0.0837 
    105 H105      -77.6571   28.6513  -76.7721 H         1 UNK         0.0837 
    106 H106      -76.9765   26.6601  -75.3412 H         1 UNK         0.3020 
    107 H107      -74.6533   24.9671  -73.2621 H         1 UNK         0.1245 
    108 H108      -76.5230   27.1659  -72.2735 H         1 UNK         0.0781 
    109 H109      -74.7920   27.1522  -72.0187 H         1 UNK         0.0781 
    110 H110      -74.6450   27.1111  -69.3055 H         1 UNK         0.0836 
    111 H111      -75.9509   26.3893  -68.3933 H         1 UNK         0.0836 
    112 H112      -77.3675   24.7926  -72.9631 H         1 UNK         0.3022 
    113 H113      -77.5461   21.9142  -74.8758 H         1 UNK         0.0747 
    114 H114      -79.2472   21.9191  -73.1271 H         1 UNK         0.0793 
    115 H115      -77.7407   22.4890  -72.4354 H         1 UNK         0.0793 
    116 H116      -79.0298   23.6312  -72.8153 H         1 UNK         0.0793 
    117 H117      -79.7858   23.7927  -75.0887 H         1 UNK         0.3047 
    118 H118      -80.1098   23.3051  -78.6235 H         1 UNK         0.0822 
    119 H119      -82.4021   22.7691  -77.8318 H         1 UNK         0.0807 
    120 H120      -81.8021   22.5031  -76.1959 H         1 UNK         0.0807 
    121 H121      -81.3007   21.4414  -77.5033 H         1 UNK         0.0807 
    122 H122      -81.1999   24.9269  -76.3837 H         1 UNK         0.2946 
    123 H123      -79.8440   27.9112  -77.5744 H         1 UNK         0.1144 
    124 H124      -82.7330   27.1200  -78.2215 H         1 UNK         0.0793 
    125 H125      -81.5660   27.7578  -79.3711 H         1 UNK         0.0793 
    126 H126      -82.1232   28.7669  -78.0481 H         1 UNK         0.0793 
    127 H127      -82.0847   27.3951  -75.8615 H         1 UNK         0.2896 
@<TRIPOS>BOND
     1    1    2 1    
     2    1   67 1    
     3    1   68 1    
     4    1   69 1    
     5    2    3 2    
     6    2    4 am   BACKBONE|DICT|INTERRES
     7    4    5 1    
     8    4   70 1    
     9    5    6 1    
    10    5   65 1    
    11    5   71 1    
    12    6    7 1    
    13    6   72 1    
    14    6   73 1    
    15    7    8 1    
    16    8    9 1    
    17    8   74 1    
    18    8   75 1    
    19    9   10 ar   
    20    9   14 ar   
    21   10   11 ar   
    22   10   76 1    
    23   11   12 ar   
    24   11   48 1    
    25   12   13 ar   
    26   12   77 1    
    27   13   14 ar   
    28   13   15 1    
    29   14   78 1    
    30   15   16 1    
    31   15   79 1    
    32   15   80 1    
    33   16   17 1    
    34   17   18 1    
    35   17   81 1    
    36   17   82 1    
    37   18   19 1    
    38   18   22 1    
    39   18   83 1    
    40   19   20 am   BACKBONE|DICT|INTERRES
    41   19   21 2    
    42   20   84 1    
    43   20   85 1    
    44   22   23 am   BACKBONE|DICT|INTERRES
    45   22   86 1    
    46   23   24 2    
    47   23   25 1    
    48   25   26 1    
    49   25   27 1    
    50   25   87 1    
    51   26   88 1    
    52   26   89 1    
    53   26   90 1    
    54   27   28 am   BACKBONE|DICT|INTERRES
    55   27   91 1    
    56   28   29 2    
    57   28   30 1    
    58   30   31 1    
    59   30   32 1    
    60   30   92 1    
    61   31   93 1    
    62   31   94 1    
    63   31   95 1    
    64   32   33 am   BACKBONE|DICT|INTERRES
    65   32   96 1    
    66   33   34 2    
    67   33   35 1    
    68   35   36 1    
    69   35   37 1    
    70   35   97 1    
    71   36   98 1    
    72   36   99 1    
    73   36  100 1    
    74   37   38 am   BACKBONE|DICT|INTERRES
    75   37  101 1    
    76   38   39 2    
    77   38   40 1    
    78   40   41 1    
    79   40   42 1    
    80   40  102 1    
    81   41  103 1    
    82   41  104 1    
    83   41  105 1    
    84   42   43 am   BACKBONE|DICT|INTERRES
    85   42  106 1    
    86   43   44 2    
    87   43   45 1    
    88   45   46 1    
    89   45   49 1    
    90   45  107 1    
    91   46   47 1    
    92   46  108 1    
    93   46  109 1    
    94   47   48 1    
    95   48  110 1    
    96   48  111 1    
    97   49   50 am   BACKBONE|DICT|INTERRES
    98   49  112 1    
    99   50   51 2    
   100   50   52 1    
   101   52   53 1    
   102   52   54 1    
   103   52  113 1    
   104   53  114 1    
   105   53  115 1    
   106   53  116 1    
   107   54   55 am   BACKBONE|DICT|INTERRES
   108   54  117 1    
   109   55   56 2    
   110   55   57 1    
   111   57   58 1    
   112   57   59 1    
   113   57  118 1    
   114   58  119 1    
   115   58  120 1    
   116   58  121 1    
   117   59   60 am   BACKBONE|DICT|INTERRES
   118   59  122 1    
   119   60   61 2    
   120   60   62 1    
   121   62   63 1    
   122   62   64 1    
   123   62  123 1    
   124   63  124 1    
   125   63  125 1    
   126   63  126 1    
   127   64   65 am   BACKBONE|DICT|INTERRES
   128   64  127 1    
   129   65   66 2    
@<TRIPOS>SUBSTRUCTURE
     1 UNK         1 GROUP             0       ****    0 ROOT    
