@<TRIPOS>MOLECULE
3R135
127   129    1
SMALL
USER_CHARGES


@<TRIPOS>ATOM
      1 CA        -76.8117   27.5907  -74.6673 C.3       0 UNK        -0.1998 
      2 C         -78.1709   26.9655  -74.4083 C.2       0 UNK         0.4909 
      3 O         -78.3042   25.7423  -74.4872 O.2       0 UNK        -0.5240 
      4 N         -79.1808   27.7980  -74.1225 N.am      1 UNK        -0.4739 
      5 CA        -80.5763   27.3966  -73.9046 C.3       1 UNK         0.0864 
      6 C6        -81.4499   28.5891  -73.4372 C.3       11 UNK        -0.0881 
      7 S7        -81.4291   28.8225  -71.6275 S.3       11 UNK        -0.2682 
      8 C8        -79.8667   29.7269  -71.3302 C.3       11 UNK         0.0289 
      9 C9        -78.6225   28.8553  -71.1273 C.ar      11 UNK        -0.0687 
     10 C10       -78.6979   27.4907  -70.8122 C.ar      11 UNK        -0.0823 
     11 C11       -77.5447   26.7222  -70.6272 C.ar      11 UNK        -0.0830 
     12 C12       -76.2957   27.3488  -70.7145 C.ar      11 UNK        -0.1021 
     13 C13       -76.1985   28.7082  -71.0203 C.ar      11 UNK        -0.0753 
     14 C14       -77.3619   29.4530  -71.2322 C.ar      11 UNK        -0.0933 
     15 C15       -74.8300   29.3659  -71.0931 C.3       11 UNK         0.0166 
     16 S16       -74.0343   29.0715  -72.7029 S.3       11 UNK        -0.2615 
     17 C17       -72.2998   29.4842  -72.3076 C.3       11 UNK        -0.0865 
     18 CA        -71.8638   30.8636  -72.8615 C.3       10 UNK         0.0862 
     19 C         -70.4506   31.2296  -72.3272 C.2       10 UNK         0.5551 
     20 N         -70.3747   31.9763  -71.2343 N.am      10 UNK        -0.7319 
     21 O         -69.4314   30.8026  -72.8666 O.2       10 UNK        -0.5018 
     22 N         -71.9409   30.8929  -74.3291 N.am      10 UNK        -0.4509 
     23 C         -71.7104   31.9631  -75.1008 C.2       10 UNK         0.4899 
     24 O         -71.4850   33.0926  -74.6646 O.2       10 UNK        -0.4839 
     25 CA        -71.7306   31.7419  -76.6230 C.3       9 UNK         0.0222 
     26 CB        -70.2999   31.5562  -77.1535 C.3       9 UNK        -0.1966 
     27 N         -72.5453   30.5956  -77.0329 N.am      9 UNK        -0.4218 
     28 C         -73.8821   30.5661  -77.0543 C.2       9 UNK         0.5020 
     29 O         -74.5918   31.5169  -76.7246 O.2       9 UNK        -0.5274 
     30 CA        -74.5495   29.2644  -77.5343 C.3       8 UNK         0.0270 
     31 CB        -74.4866   29.1450  -79.0697 C.3       8 UNK        -0.1976 
     32 N         -74.0706   28.0326  -76.8883 N.am      8 UNK        -0.4313 
     33 C         -72.8586   27.4596  -76.9200 C.2       8 UNK         0.5041 
     34 O         -71.8739   27.9544  -77.4704 O.2       8 UNK        -0.5577 
     35 CA        -72.7204   26.1003  -76.2095 C.3       7 UNK         0.0284 
     36 CB        -72.1401   26.2825  -74.7983 C.3       7 UNK        -0.1958 
     37 N         -73.9799   25.3510  -76.1197 N.am      7 UNK        -0.4454 
     38 C         -74.5974   24.7619  -77.1542 C.2       7 UNK         0.5089 
     39 O         -74.1678   24.8045  -78.3075 O.2       7 UNK        -0.5125 
     40 CA        -75.9251   24.0242  -76.8769 C.3       6 UNK         0.0408 
     41 CB        -75.9597   22.6428  -77.5649 C.3       6 UNK        -0.1791 
     42 N         -76.2974   23.9155  -75.4576 N.am      6 UNK        -0.4762 
     43 C         -75.7000   23.1890  -74.4960 C.2       6 UNK         0.5007 
     44 O         -74.6703   22.5383  -74.6699 O.2       6 UNK        -0.5032 
     45 CA        -76.3603   23.1903  -73.1040 C.3       5 UNK         0.0783 
     46 C46       -75.7984   24.3471  -72.2445 C.3       11 UNK        -0.0857 
     47 S47       -76.2200   24.1867  -70.4773 S.3       11 UNK        -0.2512 
     48 C48       -77.7135   25.2308  -70.3222 C.3       11 UNK         0.0225 
     49 N         -77.8138   23.2789  -73.2604 N.am      5 UNK        -0.4615 
     50 C         -78.6737   22.2773  -73.0556 C.2       4 UNK         0.5053 
     51 O         -78.3689   21.1892  -72.5663 O.2       4 UNK        -0.5105 
     52 CA        -80.1207   22.5286  -73.5124 C.3       4 UNK         0.0263 
     53 CB        -80.8476   23.4675  -72.5365 C.3       4 UNK        -0.1981 
     54 N         -80.1981   23.0692  -74.8761 N.am      4 UNK        -0.4224 
     55 C         -79.8283   22.3936  -75.9782 C.2       3 UNK         0.4895 
     56 O         -79.3885   21.2437  -75.9464 O.2       3 UNK        -0.5091 
     57 CA        -79.9744   23.0797  -77.3493 C.3       3 UNK         0.0250 
     58 CB        -80.7412   22.1943  -78.3495 C.3       3 UNK        -0.1996 
     59 N         -80.6263   24.3858  -77.2670 N.am      3 UNK        -0.4254 
     60 C         -80.2737   25.4735  -77.9618 C.2       2 UNK         0.5004 
     61 O         -79.3455   25.5064  -78.7720 O.2       2 UNK        -0.5226 
     62 CA        -81.0810   26.7545  -77.6883 C.3       2 UNK         0.0269 
     63 CB        -82.5834   26.5798  -77.9954 C.3       2 UNK        -0.1926 
     64 N         -80.8501   27.2805  -76.3368 N.am      2 UNK        -0.4687 
     65 C         -81.1631   26.7187  -75.1583 C.2       1 UNK         0.5165 
     66 O         -81.8086   25.6757  -75.0367 O.2       1 UNK        -0.5079 
     67 H67       -76.0565   27.1437  -74.0228 H         1 UNK         0.0900 
     68 H68       -76.8145   28.6656  -74.4823 H         1 UNK         0.0900 
     69 H69       -76.5346   27.4199  -75.7055 H         1 UNK         0.0900 
     70 H70       -78.9929   28.7865  -74.0443 H         1 UNK         0.2959 
     71 H71       -80.5786   26.6371  -73.1221 H         1 UNK         0.1079 
     72 H72       -81.1664   29.5163  -73.9385 H         1 UNK         0.0837 
     73 H73       -82.4986   28.4285  -73.6975 H         1 UNK         0.0837 
     74 H74       -79.7016   30.4295  -72.1483 H         1 UNK         0.0685 
     75 H75       -79.9980   30.3312  -70.4316 H         1 UNK         0.0685 
     76 H76       -79.6593   27.0082  -70.7136 H         1 UNK         0.1434 
     77 H77       -75.3872   26.7871  -70.5512 H         1 UNK         0.1329 
     78 H78       -77.2852   30.5064  -71.4650 H         1 UNK         0.1335 
     79 H79       -74.2065   28.9682  -70.2910 H         1 UNK         0.0680 
     80 H80       -74.9068   30.4406  -70.9209 H         1 UNK         0.0680 
     81 H81       -71.6610   28.6961  -72.7106 H         1 UNK         0.1032 
     82 H82       -72.1591   29.4460  -71.2258 H         1 UNK         0.1032 
     83 H83       -72.5665   31.6140  -72.4935 H         1 UNK         0.0461 
     84 H84       -69.4671   32.2101  -70.8628 H         1 UNK         0.3453 
     85 H85       -71.2052   32.3237  -70.7804 H         1 UNK         0.3453 
     86 H86       -72.1244   30.0105  -74.7802 H         1 UNK         0.2984 
     87 H87       -72.1491   32.6404  -77.0815 H         1 UNK         0.0554 
     88 H88       -70.2866   31.4740  -78.2404 H         1 UNK         0.0847 
     89 H89       -69.8306   30.6609  -76.7433 H         1 UNK         0.0847 
     90 H90       -69.6701   32.4059  -76.8859 H         1 UNK         0.0847 
     91 H91       -72.0623   29.7368  -77.2989 H         1 UNK         0.3141 
     92 H92       -75.6035   29.3441  -77.2625 H         1 UNK         0.0743 
     93 H93       -73.4622   29.0477  -79.4309 H         1 UNK         0.0784 
     94 H94       -75.0477   28.2792  -79.4219 H         1 UNK         0.0784 
     95 H95       -74.9166   30.0264  -79.5475 H         1 UNK         0.0784 
     96 H96       -74.7721   27.5312  -76.3663 H         1 UNK         0.3213 
     97 H97       -72.0136   25.5055  -76.7925 H         1 UNK         0.0855 
     98 H98       -71.2132   26.8574  -74.8253 H         1 UNK         0.0814 
     99 H99       -71.9088   25.3211  -74.3393 H         1 UNK         0.0814 
    100 H100      -72.8326   26.8074  -74.1412 H         1 UNK         0.0814 
    101 H101      -74.3780   25.2232  -75.2019 H         1 UNK         0.3105 
    102 H102      -76.7058   24.6348  -77.3333 H         1 UNK         0.0547 
    103 H103      -75.9106   22.7460  -78.6495 H         1 UNK         0.0837 
    104 H104      -75.1175   22.0195  -77.2629 H         1 UNK         0.0837 
    105 H105      -76.8741   22.0981  -77.3326 H         1 UNK         0.0837 
    106 H106      -77.1092   24.4665  -75.1892 H         1 UNK         0.3020 
    107 H107      -76.0883   22.2447  -72.6288 H         1 UNK         0.1245 
    108 H108      -76.1428   25.3090  -72.6213 H         1 UNK         0.0781 
    109 H109      -74.7081   24.3741  -72.3011 H         1 UNK         0.0781 
    110 H110      -78.0890   25.1321  -69.3029 H         1 UNK         0.0836 
    111 H111      -78.4843   24.8160  -70.9716 H         1 UNK         0.0836 
    112 H112      -78.1638   24.1457  -73.6632 H         1 UNK         0.3022 
    113 H113      -80.6416   21.5687  -73.5067 H         1 UNK         0.0747 
    114 H114      -81.8890   23.6122  -72.8250 H         1 UNK         0.0793 
    115 H115      -80.8441   23.0571  -71.5258 H         1 UNK         0.0793 
    116 H116      -80.3735   24.4467  -72.4915 H         1 UNK         0.0793 
    117 H117      -80.5405   24.0181  -74.9646 H         1 UNK         0.3047 
    118 H118      -78.9574   23.2123  -77.7222 H         1 UNK         0.0822 
    119 H119      -80.7849   22.6573  -79.3355 H         1 UNK         0.0807 
    120 H120      -81.7643   22.0106  -78.0196 H         1 UNK         0.0807 
    121 H121      -80.2569   21.2247  -78.4726 H         1 UNK         0.0807 
    122 H122      -81.3791   24.4878  -76.5932 H         1 UNK         0.2946 
    123 H123      -80.6995   27.5118  -78.3758 H         1 UNK         0.1144 
    124 H124      -82.7310   26.2451  -79.0231 H         1 UNK         0.0793 
    125 H125      -83.1188   27.5227  -77.8837 H         1 UNK         0.0793 
    126 H126      -83.0639   25.8475  -77.3467 H         1 UNK         0.0793 
    127 H127      -80.2791   28.1135  -76.2998 H         1 UNK         0.2896 
@<TRIPOS>BOND
     1    1    2 1    
     2    1   67 1    
     3    1   68 1    
     4    1   69 1    
     5    2    3 2    
     6    2    4 am   BACKBONE|DICT|INTERRES
     7    4    5 1    
     8    4   70 1    
     9    5    6 1    
    10    5   65 1    
    11    5   71 1    
    12    6    7 1    
    13    6   72 1    
    14    6   73 1    
    15    7    8 1    
    16    8    9 1    
    17    8   74 1    
    18    8   75 1    
    19    9   10 ar   
    20    9   14 ar   
    21   10   11 ar   
    22   10   76 1    
    23   11   12 ar   
    24   11   48 1    
    25   12   13 ar   
    26   12   77 1    
    27   13   14 ar   
    28   13   15 1    
    29   14   78 1    
    30   15   16 1    
    31   15   79 1    
    32   15   80 1    
    33   16   17 1    
    34   17   18 1    
    35   17   81 1    
    36   17   82 1    
    37   18   19 1    
    38   18   22 1    
    39   18   83 1    
    40   19   20 am   BACKBONE|DICT|INTERRES
    41   19   21 2    
    42   20   84 1    
    43   20   85 1    
    44   22   23 am   BACKBONE|DICT|INTERRES
    45   22   86 1    
    46   23   24 2    
    47   23   25 1    
    48   25   26 1    
    49   25   27 1    
    50   25   87 1    
    51   26   88 1    
    52   26   89 1    
    53   26   90 1    
    54   27   28 am   BACKBONE|DICT|INTERRES
    55   27   91 1    
    56   28   29 2    
    57   28   30 1    
    58   30   31 1    
    59   30   32 1    
    60   30   92 1    
    61   31   93 1    
    62   31   94 1    
    63   31   95 1    
    64   32   33 am   BACKBONE|DICT|INTERRES
    65   32   96 1    
    66   33   34 2    
    67   33   35 1    
    68   35   36 1    
    69   35   37 1    
    70   35   97 1    
    71   36   98 1    
    72   36   99 1    
    73   36  100 1    
    74   37   38 am   BACKBONE|DICT|INTERRES
    75   37  101 1    
    76   38   39 2    
    77   38   40 1    
    78   40   41 1    
    79   40   42 1    
    80   40  102 1    
    81   41  103 1    
    82   41  104 1    
    83   41  105 1    
    84   42   43 am   BACKBONE|DICT|INTERRES
    85   42  106 1    
    86   43   44 2    
    87   43   45 1    
    88   45   46 1    
    89   45   49 1    
    90   45  107 1    
    91   46   47 1    
    92   46  108 1    
    93   46  109 1    
    94   47   48 1    
    95   48  110 1    
    96   48  111 1    
    97   49   50 am   BACKBONE|DICT|INTERRES
    98   49  112 1    
    99   50   51 2    
   100   50   52 1    
   101   52   53 1    
   102   52   54 1    
   103   52  113 1    
   104   53  114 1    
   105   53  115 1    
   106   53  116 1    
   107   54   55 am   BACKBONE|DICT|INTERRES
   108   54  117 1    
   109   55   56 2    
   110   55   57 1    
   111   57   58 1    
   112   57   59 1    
   113   57  118 1    
   114   58  119 1    
   115   58  120 1    
   116   58  121 1    
   117   59   60 am   BACKBONE|DICT|INTERRES
   118   59  122 1    
   119   60   61 2    
   120   60   62 1    
   121   62   63 1    
   122   62   64 1    
   123   62  123 1    
   124   63  124 1    
   125   63  125 1    
   126   63  126 1    
   127   64   65 am   BACKBONE|DICT|INTERRES
   128   64  127 1    
   129   65   66 2    
@<TRIPOS>SUBSTRUCTURE
     1 UNK         1 GROUP             0       ****    0 ROOT    
