@<TRIPOS>MOLECULE
3R135
127   129    1
SMALL
USER_CHARGES


@<TRIPOS>ATOM
      1 CA        -77.3762   21.5086  -76.0078 C.3       0 UNK        -0.1998 
      2 C         -77.6836   22.1249  -74.6525 C.2       0 UNK         0.4909 
      3 O         -78.3126   21.4809  -73.8126 O.2       0 UNK        -0.5240 
      4 N         -77.2594   23.3750  -74.4339 N.am      1 UNK        -0.4739 
      5 CA        -77.4425   24.1164  -73.1862 C.3       1 UNK         0.0864 
      6 C6        -76.4676   25.3158  -73.0928 C.3       11 UNK        -0.0881 
      7 S7        -76.0423   25.7326  -71.3680 S.3       11 UNK        -0.2682 
      8 C8        -77.3607   26.9030  -70.8908 C.3       11 UNK         0.0289 
      9 C9        -77.5124   28.0906  -71.8356 C.ar      11 UNK        -0.0687 
     10 C10       -78.7865   28.4785  -72.2636 C.ar      11 UNK        -0.0823 
     11 C11       -78.9464   29.5661  -73.1267 C.ar      11 UNK        -0.0830 
     12 C12       -77.8200   30.2741  -73.5547 C.ar      11 UNK        -0.1021 
     13 C13       -76.5405   29.8854  -73.1520 C.ar      11 UNK        -0.0753 
     14 C14       -76.3933   28.8008  -72.2838 C.ar      11 UNK        -0.0933 
     15 C15       -75.3219   30.6059  -73.7059 C.3       11 UNK         0.0166 
     16 S16       -74.8130   32.0120  -72.6653 S.3       11 UNK        -0.2615 
     17 C17       -73.7196   31.2143  -71.4372 C.3       11 UNK        -0.0865 
     18 CA        -72.2203   31.2883  -71.8348 C.3       10 UNK         0.0862 
     19 C         -71.3030   30.7836  -70.6810 C.2       10 UNK         0.5551 
     20 N         -70.4745   29.7626  -70.8728 N.am      10 UNK        -0.7319 
     21 O         -71.3401   31.3387  -69.5857 O.2       10 UNK        -0.5018 
     22 N         -71.9808   30.6261  -73.1242 N.am      10 UNK        -0.4509 
     23 C         -70.9711   30.8818  -73.9623 C.2       10 UNK         0.4899 
     24 O         -70.1405   31.7744  -73.7856 O.2       10 UNK        -0.4839 
     25 CA        -70.8842   29.9714  -75.2057 C.3       9 UNK         0.0222 
     26 CB        -69.4654   29.9261  -75.8113 C.3       9 UNK        -0.1966 
     27 N         -71.3905   28.6104  -74.9679 N.am      9 UNK        -0.4218 
     28 C         -70.9520   27.7220  -74.0639 C.2       9 UNK         0.5020 
     29 O         -70.0378   27.9549  -73.2716 O.2       9 UNK        -0.5274 
     30 CA        -71.6439   26.3457  -74.0019 C.3       8 UNK         0.0270 
     31 CB        -72.6025   26.2762  -72.7952 C.3       8 UNK        -0.1976 
     32 N         -72.3115   25.8984  -75.2377 N.am      8 UNK        -0.4313 
     33 C         -73.3928   26.4144  -75.8386 C.2       8 UNK         0.5041 
     34 O         -73.9618   27.4367  -75.4511 O.2       8 UNK        -0.5577 
     35 CA        -73.9025   25.6552  -77.0775 C.3       7 UNK         0.0284 
     36 CB        -74.4465   24.2711  -76.6886 C.3       7 UNK        -0.1958 
     37 N         -74.9609   26.3943  -77.7676 N.am      7 UNK        -0.4454 
     38 C         -74.7494   27.4024  -78.6260 C.2       7 UNK         0.5089 
     39 O         -73.6289   27.7712  -78.9817 O.2       7 UNK        -0.5125 
     40 CA        -75.9880   28.1109  -79.2118 C.3       6 UNK         0.0408 
     41 CB        -76.2644   27.6107  -80.6389 C.3       6 UNK        -0.1791 
     42 N         -77.1954   27.9307  -78.4026 N.am      6 UNK        -0.4762 
     43 C         -77.4161   28.5140  -77.2152 C.2       6 UNK         0.5007 
     44 O         -76.6763   29.3780  -76.7462 O.2       6 UNK        -0.5032 
     45 CA        -78.6641   28.0717  -76.4151 C.3       5 UNK         0.0783 
     46 C46       -79.6660   29.2455  -76.2687 C.3       11 UNK        -0.0857 
     47 S47       -80.9134   28.9089  -74.9794 S.3       11 UNK        -0.2512 
     48 C48       -80.3333   29.9665  -73.6111 C.3       11 UNK         0.0225 
     49 N         -79.3331   26.8798  -76.9584 N.am      5 UNK        -0.4615 
     50 C         -78.8248   25.6439  -77.0093 C.2       4 UNK         0.5053 
     51 O         -77.6862   25.3468  -76.6393 O.2       4 UNK        -0.5105 
     52 CA        -79.7342   24.5682  -77.6090 C.3       4 UNK         0.0263 
     53 CB        -78.9754   23.7180  -78.6497 C.3       4 UNK        -0.1981 
     54 N         -80.2778   23.7418  -76.5310 N.am      4 UNK        -0.4224 
     55 C         -81.3269   22.9149  -76.6593 C.2       3 UNK         0.4895 
     56 O         -81.9479   22.7702  -77.7132 O.2       3 UNK        -0.5091 
     57 CA        -81.7756   22.0968  -75.4331 C.3       3 UNK         0.0250 
     58 CB        -81.3594   20.6235  -75.5802 C.3       3 UNK        -0.1996 
     59 N         -81.2630   22.6139  -74.1633 N.am      3 UNK        -0.4254 
     60 C         -81.8664   23.5652  -73.4342 C.2       2 UNK         0.5004 
     61 O         -82.9416   24.0825  -73.7381 O.2       2 UNK        -0.5226 
     62 CA        -81.1448   24.0299  -72.1533 C.3       2 UNK         0.0269 
     63 CB        -81.6776   23.2733  -70.9262 C.3       2 UNK        -0.1926 
     64 N         -79.6886   23.8724  -72.2257 N.am      2 UNK        -0.4687 
     65 C         -78.9142   24.5497  -73.0826 C.2       1 UNK         0.5165 
     66 O         -79.3440   25.4280  -73.8296 O.2       1 UNK        -0.5079 
     67 H67       -78.2900   21.3882  -76.5875 H         1 UNK         0.0900 
     68 H68       -76.9244   20.5258  -75.8774 H         1 UNK         0.0900 
     69 H69       -76.6832   22.1219  -76.5826 H         1 UNK         0.0900 
     70 H70       -76.8988   23.9194  -75.2085 H         1 UNK         0.2959 
     71 H71       -77.2181   23.4290  -72.3670 H         1 UNK         0.1079 
     72 H72       -75.5214   25.0579  -73.5706 H         1 UNK         0.0837 
     73 H73       -76.8266   26.1900  -73.6397 H         1 UNK         0.0837 
     74 H74       -77.1415   27.2821  -69.8920 H         1 UNK         0.0685 
     75 H75       -78.2995   26.3540  -70.8077 H         1 UNK         0.0685 
     76 H76       -79.6573   27.9251  -71.9390 H         1 UNK         0.1434 
     77 H77       -77.9323   31.1123  -74.2284 H         1 UNK         0.1329 
     78 H78       -75.4059   28.4888  -71.9761 H         1 UNK         0.1335 
     79 H79       -74.5012   29.9010  -73.8373 H         1 UNK         0.0680 
     80 H80       -75.5458   30.9823  -74.7053 H         1 UNK         0.0680 
     81 H81       -74.0259   30.1814  -71.2728 H         1 UNK         0.1032 
     82 H82       -73.8831   31.7252  -70.4864 H         1 UNK         0.1032 
     83 H83       -71.9725   32.3441  -71.9609 H         1 UNK         0.0461 
     84 H84       -69.8888   29.4592  -70.1114 H         1 UNK         0.3453 
     85 H85       -70.4100   29.2957  -71.7702 H         1 UNK         0.3453 
     86 H86       -72.5977   29.8618  -73.3504 H         1 UNK         0.2984 
     87 H87       -71.5473   30.4142  -75.9502 H         1 UNK         0.0554 
     88 H88       -69.4319   29.2919  -76.6970 H         1 UNK         0.0847 
     89 H89       -68.7334   29.5458  -75.0980 H         1 UNK         0.0847 
     90 H90       -69.1362   30.9206  -76.1150 H         1 UNK         0.0847 
     91 H91       -72.2264   28.3445  -75.4829 H         1 UNK         0.3141 
     92 H92       -70.8473   25.6213  -73.8246 H         1 UNK         0.0743 
     93 H93       -73.4313   26.9786  -72.8886 H         1 UNK         0.0784 
     94 H94       -73.0237   25.2776  -72.6804 H         1 UNK         0.0784 
     95 H95       -72.0818   26.5151  -71.8669 H         1 UNK         0.0784 
     96 H96       -71.8918   25.0835  -75.6648 H         1 UNK         0.3213 
     97 H97       -73.0633   25.5187  -77.7634 H         1 UNK         0.0855 
     98 H98       -75.2321   24.3553  -75.9413 H         1 UNK         0.0814 
     99 H99       -73.6655   23.6355  -76.2702 H         1 UNK         0.0814 
    100 H100      -74.8582   23.7484  -77.5523 H         1 UNK         0.0814 
    101 H101      -75.9115   26.1924  -77.4792 H         1 UNK         0.3105 
    102 H102      -75.7634   29.1785  -79.2622 H         1 UNK         0.0547 
    103 H103      -75.3938   27.7596  -81.2793 H         1 UNK         0.0837 
    104 H104      -76.5018   26.5462  -80.6558 H         1 UNK         0.0837 
    105 H105      -77.0950   28.1491  -81.0956 H         1 UNK         0.0837 
    106 H106      -77.8629   27.2450  -78.7234 H         1 UNK         0.3020 
    107 H107      -78.2938   27.8069  -75.4208 H         1 UNK         0.1245 
    108 H108      -80.1826   29.4265  -77.2129 H         1 UNK         0.0781 
    109 H109      -79.1589   30.1817  -76.0322 H         1 UNK         0.0781 
    110 H110      -81.0428   29.8959  -72.7853 H         1 UNK         0.0836 
    111 H111      -80.3439   31.0100  -73.9302 H         1 UNK         0.0836 
    112 H112      -80.2846   27.0233  -77.2641 H         1 UNK         0.3022 
    113 H113      -80.5669   25.0602  -78.1167 H         1 UNK         0.0747 
    114 H114      -79.6207   22.9719  -79.1127 H         1 UNK         0.0793 
    115 H115      -78.5872   24.3462  -79.4523 H         1 UNK         0.0793 
    116 H116      -78.1250   23.1982  -78.2113 H         1 UNK         0.0793 
    117 H117      -79.8614   23.8849  -75.6197 H         1 UNK         0.3047 
    118 H118      -82.8674   22.1283  -75.4142 H         1 UNK         0.0822 
    119 H119      -81.7327   20.2017  -76.5145 H         1 UNK         0.0807 
    120 H120      -81.7642   20.0170  -74.7697 H         1 UNK         0.0807 
    121 H121      -80.2769   20.5015  -75.5772 H         1 UNK         0.0807 
    122 H122      -80.3820   22.2334  -73.8359 H         1 UNK         0.2946 
    123 H123      -81.3645   25.0929  -72.0265 H         1 UNK         0.1144 
    124 H124      -82.7580   23.3931  -70.8334 H         1 UNK         0.0793 
    125 H125      -81.2318   23.6476  -70.0044 H         1 UNK         0.0793 
    126 H126      -81.4727   22.2038  -70.9899 H         1 UNK         0.0793 
    127 H127      -79.2802   23.1335  -71.6700 H         1 UNK         0.2896 
@<TRIPOS>BOND
     1    1    2 1    
     2    1   67 1    
     3    1   68 1    
     4    1   69 1    
     5    2    3 2    
     6    2    4 am   BACKBONE|DICT|INTERRES
     7    4    5 1    
     8    4   70 1    
     9    5    6 1    
    10    5   65 1    
    11    5   71 1    
    12    6    7 1    
    13    6   72 1    
    14    6   73 1    
    15    7    8 1    
    16    8    9 1    
    17    8   74 1    
    18    8   75 1    
    19    9   10 ar   
    20    9   14 ar   
    21   10   11 ar   
    22   10   76 1    
    23   11   12 ar   
    24   11   48 1    
    25   12   13 ar   
    26   12   77 1    
    27   13   14 ar   
    28   13   15 1    
    29   14   78 1    
    30   15   16 1    
    31   15   79 1    
    32   15   80 1    
    33   16   17 1    
    34   17   18 1    
    35   17   81 1    
    36   17   82 1    
    37   18   19 1    
    38   18   22 1    
    39   18   83 1    
    40   19   20 am   BACKBONE|DICT|INTERRES
    41   19   21 2    
    42   20   84 1    
    43   20   85 1    
    44   22   23 am   BACKBONE|DICT|INTERRES
    45   22   86 1    
    46   23   24 2    
    47   23   25 1    
    48   25   26 1    
    49   25   27 1    
    50   25   87 1    
    51   26   88 1    
    52   26   89 1    
    53   26   90 1    
    54   27   28 am   BACKBONE|DICT|INTERRES
    55   27   91 1    
    56   28   29 2    
    57   28   30 1    
    58   30   31 1    
    59   30   32 1    
    60   30   92 1    
    61   31   93 1    
    62   31   94 1    
    63   31   95 1    
    64   32   33 am   BACKBONE|DICT|INTERRES
    65   32   96 1    
    66   33   34 2    
    67   33   35 1    
    68   35   36 1    
    69   35   37 1    
    70   35   97 1    
    71   36   98 1    
    72   36   99 1    
    73   36  100 1    
    74   37   38 am   BACKBONE|DICT|INTERRES
    75   37  101 1    
    76   38   39 2    
    77   38   40 1    
    78   40   41 1    
    79   40   42 1    
    80   40  102 1    
    81   41  103 1    
    82   41  104 1    
    83   41  105 1    
    84   42   43 am   BACKBONE|DICT|INTERRES
    85   42  106 1    
    86   43   44 2    
    87   43   45 1    
    88   45   46 1    
    89   45   49 1    
    90   45  107 1    
    91   46   47 1    
    92   46  108 1    
    93   46  109 1    
    94   47   48 1    
    95   48  110 1    
    96   48  111 1    
    97   49   50 am   BACKBONE|DICT|INTERRES
    98   49  112 1    
    99   50   51 2    
   100   50   52 1    
   101   52   53 1    
   102   52   54 1    
   103   52  113 1    
   104   53  114 1    
   105   53  115 1    
   106   53  116 1    
   107   54   55 am   BACKBONE|DICT|INTERRES
   108   54  117 1    
   109   55   56 2    
   110   55   57 1    
   111   57   58 1    
   112   57   59 1    
   113   57  118 1    
   114   58  119 1    
   115   58  120 1    
   116   58  121 1    
   117   59   60 am   BACKBONE|DICT|INTERRES
   118   59  122 1    
   119   60   61 2    
   120   60   62 1    
   121   62   63 1    
   122   62   64 1    
   123   62  123 1    
   124   63  124 1    
   125   63  125 1    
   126   63  126 1    
   127   64   65 am   BACKBONE|DICT|INTERRES
   128   64  127 1    
   129   65   66 2    
@<TRIPOS>SUBSTRUCTURE
     1 UNK         1 GROUP             0       ****    0 ROOT    
