@<TRIPOS>MOLECULE
3R135
127   129    1
SMALL
USER_CHARGES


@<TRIPOS>ATOM
      1 CA        -78.9979   22.7412  -72.4012 C.3       0 UNK        -0.1998 
      2 C         -80.0666   23.7419  -71.9869 C.2       0 UNK         0.4909 
      3 O         -80.6908   23.5703  -70.9395 O.2       0 UNK        -0.5240 
      4 N         -80.2819   24.7787  -72.8036 N.am      1 UNK        -0.4739 
      5 CA        -81.3318   25.7869  -72.6158 C.3       1 UNK         0.0864 
      6 C6        -80.8735   27.1887  -73.0852 C.3       11 UNK        -0.0881 
      7 S7        -79.7016   27.9178  -71.9001 S.3       11 UNK        -0.2682 
      8 C8        -79.3527   29.5230  -72.6781 C.3       11 UNK         0.0289 
      9 C9        -78.0118   29.5039  -73.3917 C.ar      11 UNK        -0.0687 
     10 C10       -77.9402   29.4158  -74.7864 C.ar      11 UNK        -0.0823 
     11 C11       -76.6976   29.4187  -75.4295 C.ar      11 UNK        -0.0830 
     12 C12       -75.5291   29.5112  -74.6678 C.ar      11 UNK        -0.1021 
     13 C13       -75.5906   29.5904  -73.2756 C.ar      11 UNK        -0.0753 
     14 C14       -76.8344   29.5915  -72.6426 C.ar      11 UNK        -0.0933 
     15 C15       -74.3107   29.6690  -72.4634 C.3       11 UNK         0.0166 
     16 S16       -73.8725   31.3932  -72.0909 S.3       11 UNK        -0.2615 
     17 C17       -72.0773   31.2372  -71.7911 C.3       11 UNK        -0.0865 
     18 CA        -71.2260   31.7449  -72.9865 C.3       10 UNK         0.0862 
     19 C         -69.7031   31.6956  -72.6618 C.2       10 UNK         0.5551 
     20 N         -68.8647   31.0328  -73.4509 N.am      10 UNK        -0.7319 
     21 O         -69.2711   32.2803  -71.6715 O.2       10 UNK        -0.5018 
     22 N         -71.5941   31.0805  -74.2477 N.am      10 UNK        -0.4509 
     23 C         -71.4625   31.6232  -75.4634 C.2       10 UNK         0.4899 
     24 O         -71.0662   32.7732  -75.6603 O.2       10 UNK        -0.4839 
     25 CA        -71.8369   30.7209  -76.6575 C.3       9 UNK         0.0222 
     26 CB        -71.2263   31.2141  -77.9862 C.3       9 UNK        -0.1966 
     27 N         -71.5238   29.2992  -76.4516 N.am      9 UNK        -0.4218 
     28 C         -70.3325   28.7542  -76.1674 C.2       9 UNK         0.5020 
     29 O         -69.3120   29.4058  -75.9350 O.2       9 UNK        -0.5274 
     30 CA        -70.2930   27.2152  -76.1074 C.3       8 UNK         0.0270 
     31 CB        -68.8795   26.6632  -76.3708 C.3       8 UNK        -0.1976 
     32 N         -70.7751   26.6909  -74.8274 N.am      8 UNK        -0.4313 
     33 C         -72.0373   26.7501  -74.3878 C.2       8 UNK         0.5041 
     34 O         -72.9587   27.2885  -75.0099 O.2       8 UNK        -0.5577 
     35 CA        -72.3186   26.1002  -73.0282 C.3       7 UNK         0.0284 
     36 CB        -71.6521   26.8686  -71.8699 C.3       7 UNK        -0.1958 
     37 N         -73.7650   26.0476  -72.8466 N.am      7 UNK        -0.4454 
     38 C         -74.4273   25.2428  -72.0103 C.2       7 UNK         0.5089 
     39 O         -73.8767   24.4801  -71.2154 O.2       7 UNK        -0.5125 
     40 CA        -75.9660   25.2799  -72.0697 C.3       6 UNK         0.0408 
     41 CB        -76.5282   26.1460  -70.9329 C.3       6 UNK        -0.1791 
     42 N         -76.5088   25.7425  -73.3536 N.am      6 UNK        -0.4762 
     43 C         -76.4551   25.0313  -74.4892 C.2       6 UNK         0.5007 
     44 O         -75.9050   23.9307  -74.5786 O.2       6 UNK        -0.5032 
     45 CA        -77.1269   25.6504  -75.7294 C.3       5 UNK         0.0783 
     46 C46       -76.1390   26.5341  -76.5277 C.3       11 UNK        -0.0857 
     47 S47       -77.0621   27.6860  -77.6015 S.3       11 UNK        -0.2512 
     48 C48       -76.6004   29.3259  -76.9475 C.3       11 UNK         0.0225 
     49 N         -77.6581   24.5800  -76.5750 N.am      5 UNK        -0.4615 
     50 C         -78.8236   23.9592  -76.3859 C.2       4 UNK         0.5053 
     51 O         -79.6578   24.2924  -75.5384 O.2       4 UNK        -0.5105 
     52 CA        -79.0627   22.7143  -77.2501 C.3       4 UNK         0.0263 
     53 CB        -78.6569   21.4522  -76.4712 C.3       4 UNK        -0.1981 
     54 N         -80.4753   22.6214  -77.6005 N.am      4 UNK        -0.4224 
     55 C         -81.0224   23.0748  -78.7365 C.2       3 UNK         0.4895 
     56 O         -80.3749   23.5088  -79.6900 O.2       3 UNK        -0.5091 
     57 CA        -82.5618   23.0555  -78.8138 C.3       3 UNK         0.0250 
     58 CB        -83.0543   21.7664  -79.4913 C.3       3 UNK        -0.1996 
     59 N         -83.1879   23.1830  -77.4931 N.am      3 UNK        -0.4254 
     60 C         -83.1434   24.2955  -76.7464 C.2       2 UNK         0.5004 
     61 O         -82.7098   25.3736  -77.1570 O.2       2 UNK        -0.5226 
     62 CA        -83.6091   24.1908  -75.2887 C.3       2 UNK         0.0269 
     63 CB        -84.0601   22.7814  -74.8468 C.3       2 UNK        -0.1926 
     64 N         -82.5018   24.6360  -74.4466 N.am      2 UNK        -0.4687 
     65 C         -82.6282   25.3694  -73.3349 C.2       1 UNK         0.5165 
     66 O         -83.7148   25.7141  -72.8671 O.2       1 UNK        -0.5079 
     67 H67       -78.2614   22.6279  -71.6064 H         1 UNK         0.0900 
     68 H68       -78.4745   23.0520  -73.3046 H         1 UNK         0.0900 
     69 H69       -79.4494   21.7678  -72.5898 H         1 UNK         0.0900 
     70 H70       -79.8005   24.8068  -73.6972 H         1 UNK         0.2959 
     71 H71       -81.5845   25.8529  -71.5547 H         1 UNK         0.1079 
     72 H72       -80.4172   27.1443  -74.0762 H         1 UNK         0.0837 
     73 H73       -81.7228   27.8712  -73.1634 H         1 UNK         0.0837 
     74 H74       -80.1564   29.8007  -73.3617 H         1 UNK         0.0685 
     75 H75       -79.3365   30.2908  -71.9031 H         1 UNK         0.0685 
     76 H76       -78.8468   29.3461  -75.3722 H         1 UNK         0.1434 
     77 H77       -74.5655   29.5108  -75.1583 H         1 UNK         0.1329 
     78 H78       -76.8878   29.6616  -71.5646 H         1 UNK         0.1335 
     79 H79       -73.5032   29.1996  -73.0242 H         1 UNK         0.0680 
     80 H80       -74.4123   29.1068  -71.5338 H         1 UNK         0.0680 
     81 H81       -71.8242   30.2058  -71.5442 H         1 UNK         0.1032 
     82 H82       -71.8480   31.8178  -70.8954 H         1 UNK         0.1032 
     83 H83       -71.4573   32.8059  -73.1003 H         1 UNK         0.0461 
     84 H84       -67.8841   31.0205  -73.2207 H         1 UNK         0.3453 
     85 H85       -69.1873   30.5588  -74.2877 H         1 UNK         0.3453 
     86 H86       -71.9066   30.1248  -74.1798 H         1 UNK         0.2984 
     87 H87       -72.9221   30.7823  -76.7510 H         1 UNK         0.0554 
     88 H88       -71.5269   30.5810  -78.8210 H         1 UNK         0.0847 
     89 H89       -70.1363   31.2248  -77.9488 H         1 UNK         0.0847 
     90 H90       -71.5542   32.2282  -78.2182 H         1 UNK         0.0847 
     91 H91       -72.3123   28.6602  -76.4761 H         1 UNK         0.3141 
     92 H92       -70.9458   26.8367  -76.8972 H         1 UNK         0.0743 
     93 H93       -68.1762   26.9574  -75.5905 H         1 UNK         0.0784 
     94 H94       -68.8822   25.5745  -76.4276 H         1 UNK         0.0784 
     95 H95       -68.4870   27.0341  -77.3187 H         1 UNK         0.0784 
     96 H96       -70.0806   26.2536  -74.2387 H         1 UNK         0.3213 
     97 H97       -71.9316   25.0793  -73.0601 H         1 UNK         0.0855 
     98 H98       -72.0427   27.8792  -71.7752 H         1 UNK         0.0814 
     99 H99       -70.5734   26.9467  -72.0092 H         1 UNK         0.0814 
    100 H100      -71.8122   26.3642  -70.9169 H         1 UNK         0.0814 
    101 H101      -74.2785   26.6047  -73.5194 H         1 UNK         0.3105 
    102 H102      -76.3138   24.2575  -71.9091 H         1 UNK         0.0547 
    103 H103      -76.1349   25.8273  -69.9666 H         1 UNK         0.0837 
    104 H104      -76.2702   27.1974  -71.0577 H         1 UNK         0.0837 
    105 H105      -77.6134   26.0663  -70.8765 H         1 UNK         0.0837 
    106 H106      -76.9600   26.6478  -73.3514 H         1 UNK         0.3020 
    107 H107      -77.9571   26.2689  -75.3781 H         1 UNK         0.1245 
    108 H108      -75.4766   27.0935  -75.8690 H         1 UNK         0.0781 
    109 H109      -75.4765   25.9254  -77.1457 H         1 UNK         0.0781 
    110 H110      -75.5884   29.5598  -77.2822 H         1 UNK         0.0836 
    111 H111      -77.2478   30.0802  -77.3967 H         1 UNK         0.0836 
    112 H112      -77.0175   24.2089  -77.2608 H         1 UNK         0.3022 
    113 H113      -78.4555   22.7772  -78.1559 H         1 UNK         0.0747 
    114 H114      -78.8093   20.5526  -77.0677 H         1 UNK         0.0793 
    115 H115      -77.6012   21.4848  -76.1974 H         1 UNK         0.0793 
    116 H116      -79.2283   21.3436  -75.5482 H         1 UNK         0.0793 
    117 H117      -81.0947   22.3297  -76.8598 H         1 UNK         0.3047 
    118 H118      -82.8731   23.9058  -79.4248 H         1 UNK         0.0822 
    119 H119      -84.1380   21.7692  -79.6100 H         1 UNK         0.0807 
    120 H120      -82.7800   20.8778  -78.9212 H         1 UNK         0.0807 
    121 H121      -82.6214   21.6606  -80.4871 H         1 UNK         0.0807 
    122 H122      -83.5846   22.3452  -77.0917 H         1 UNK         0.2946 
    123 H123      -84.4544   24.8758  -75.1885 H         1 UNK         0.1144 
    124 H124      -84.8980   22.4239  -75.4467 H         1 UNK         0.0793 
    125 H125      -84.3987   22.7908  -73.8105 H         1 UNK         0.0793 
    126 H126      -83.2532   22.0508  -74.9180 H         1 UNK         0.0793 
    127 H127      -81.5691   24.4564  -74.8066 H         1 UNK         0.2896 
@<TRIPOS>BOND
     1    1    2 1    
     2    1   67 1    
     3    1   68 1    
     4    1   69 1    
     5    2    3 2    
     6    2    4 am   BACKBONE|DICT|INTERRES
     7    4    5 1    
     8    4   70 1    
     9    5    6 1    
    10    5   65 1    
    11    5   71 1    
    12    6    7 1    
    13    6   72 1    
    14    6   73 1    
    15    7    8 1    
    16    8    9 1    
    17    8   74 1    
    18    8   75 1    
    19    9   10 ar   
    20    9   14 ar   
    21   10   11 ar   
    22   10   76 1    
    23   11   12 ar   
    24   11   48 1    
    25   12   13 ar   
    26   12   77 1    
    27   13   14 ar   
    28   13   15 1    
    29   14   78 1    
    30   15   16 1    
    31   15   79 1    
    32   15   80 1    
    33   16   17 1    
    34   17   18 1    
    35   17   81 1    
    36   17   82 1    
    37   18   19 1    
    38   18   22 1    
    39   18   83 1    
    40   19   20 am   BACKBONE|DICT|INTERRES
    41   19   21 2    
    42   20   84 1    
    43   20   85 1    
    44   22   23 am   BACKBONE|DICT|INTERRES
    45   22   86 1    
    46   23   24 2    
    47   23   25 1    
    48   25   26 1    
    49   25   27 1    
    50   25   87 1    
    51   26   88 1    
    52   26   89 1    
    53   26   90 1    
    54   27   28 am   BACKBONE|DICT|INTERRES
    55   27   91 1    
    56   28   29 2    
    57   28   30 1    
    58   30   31 1    
    59   30   32 1    
    60   30   92 1    
    61   31   93 1    
    62   31   94 1    
    63   31   95 1    
    64   32   33 am   BACKBONE|DICT|INTERRES
    65   32   96 1    
    66   33   34 2    
    67   33   35 1    
    68   35   36 1    
    69   35   37 1    
    70   35   97 1    
    71   36   98 1    
    72   36   99 1    
    73   36  100 1    
    74   37   38 am   BACKBONE|DICT|INTERRES
    75   37  101 1    
    76   38   39 2    
    77   38   40 1    
    78   40   41 1    
    79   40   42 1    
    80   40  102 1    
    81   41  103 1    
    82   41  104 1    
    83   41  105 1    
    84   42   43 am   BACKBONE|DICT|INTERRES
    85   42  106 1    
    86   43   44 2    
    87   43   45 1    
    88   45   46 1    
    89   45   49 1    
    90   45  107 1    
    91   46   47 1    
    92   46  108 1    
    93   46  109 1    
    94   47   48 1    
    95   48  110 1    
    96   48  111 1    
    97   49   50 am   BACKBONE|DICT|INTERRES
    98   49  112 1    
    99   50   51 2    
   100   50   52 1    
   101   52   53 1    
   102   52   54 1    
   103   52  113 1    
   104   53  114 1    
   105   53  115 1    
   106   53  116 1    
   107   54   55 am   BACKBONE|DICT|INTERRES
   108   54  117 1    
   109   55   56 2    
   110   55   57 1    
   111   57   58 1    
   112   57   59 1    
   113   57  118 1    
   114   58  119 1    
   115   58  120 1    
   116   58  121 1    
   117   59   60 am   BACKBONE|DICT|INTERRES
   118   59  122 1    
   119   60   61 2    
   120   60   62 1    
   121   62   63 1    
   122   62   64 1    
   123   62  123 1    
   124   63  124 1    
   125   63  125 1    
   126   63  126 1    
   127   64   65 am   BACKBONE|DICT|INTERRES
   128   64  127 1    
   129   65   66 2    
@<TRIPOS>SUBSTRUCTURE
     1 UNK         1 GROUP             0       ****    0 ROOT    
