@<TRIPOS>MOLECULE
3R135
127   129    1
SMALL
USER_CHARGES


@<TRIPOS>ATOM
      1 CA        -82.2984   27.3746  -70.2681 C.3       0 UNK        -0.1998 
      2 C         -81.8504   27.1736  -71.7071 C.2       0 UNK         0.4909 
      3 O         -80.9348   26.3901  -71.9527 O.2       0 UNK        -0.5240 
      4 N         -82.4980   27.8655  -72.6551 N.am      1 UNK        -0.4739 
      5 CA        -82.2443   27.9081  -74.1084 C.3       1 UNK         0.0864 
      6 C6        -80.8298   28.4134  -74.5020 C.3       11 UNK        -0.0881 
      7 S7        -80.3983   30.0315  -73.7786 S.3       11 UNK        -0.2682 
      8 C8        -78.6232   30.1402  -74.2095 C.3       11 UNK         0.0289 
      9 C9        -77.6532   29.4040  -73.2791 C.ar      11 UNK        -0.0687 
     10 C10       -78.0717   28.4507  -72.3410 C.ar      11 UNK        -0.0823 
     11 C11       -77.1504   27.7966  -71.5201 C.ar      11 UNK        -0.0830 
     12 C12       -75.7948   28.1148  -71.6200 C.ar      11 UNK        -0.1021 
     13 C13       -75.3560   29.0596  -72.5499 C.ar      11 UNK        -0.0753 
     14 C14       -76.2871   29.6927  -73.3798 C.ar      11 UNK        -0.0933 
     15 C15       -73.8723   29.3695  -72.6658 C.3       11 UNK         0.0166 
     16 S16       -73.3877   30.7750  -71.6177 S.3       11 UNK        -0.2615 
     17 C17       -73.4418   32.1608  -72.8088 C.3       11 UNK        -0.0865 
     18 CA        -72.0618   32.6712  -73.3278 C.3       10 UNK         0.0862 
     19 C         -71.1182   33.2288  -72.2162 C.2       10 UNK         0.5551 
     20 N         -69.8033   33.0918  -72.3311 N.am      10 UNK        -0.7319 
     21 O         -71.5812   33.8469  -71.2602 O.2       10 UNK        -0.5018 
     22 N         -71.4541   31.8011  -74.3566 N.am      10 UNK        -0.4509 
     23 C         -70.8022   30.6425  -74.1893 C.2       10 UNK         0.4899 
     24 O         -70.5590   30.1173  -73.1023 O.2       10 UNK        -0.4839 
     25 CA        -70.2812   29.9738  -75.4716 C.3       9 UNK         0.0222 
     26 CB        -68.7786   30.2466  -75.6510 C.3       9 UNK        -0.1966 
     27 N         -70.5113   28.5286  -75.4321 N.am      9 UNK        -0.4218 
     28 C         -71.7025   27.9540  -75.6383 C.2       9 UNK         0.5020 
     29 O         -72.7152   28.5800  -75.9593 O.2       9 UNK        -0.5274 
     30 CA        -71.7707   26.4329  -75.4216 C.3       8 UNK         0.0270 
     31 CB        -71.9363   26.1011  -73.9293 C.3       8 UNK        -0.1976 
     32 N         -72.8845   25.8460  -76.1687 N.am      8 UNK        -0.4313 
     33 C         -72.8375   25.5478  -77.4754 C.2       8 UNK         0.5041 
     34 O         -71.8157   25.6482  -78.1575 O.2       8 UNK        -0.5577 
     35 CA        -74.1272   25.0383  -78.1491 C.3       7 UNK         0.0284 
     36 CB        -74.0966   23.5058  -78.2709 C.3       7 UNK        -0.1958 
     37 N         -75.3526   25.4359  -77.4558 N.am      7 UNK        -0.4454 
     38 C         -75.8158   26.6891  -77.3566 C.2       7 UNK         0.5089 
     39 O         -75.3247   27.6470  -77.9536 O.2       7 UNK        -0.5125 
     40 CA        -77.0347   26.9196  -76.4414 C.3       6 UNK         0.0408 
     41 CB        -78.2990   27.1040  -77.2938 C.3       6 UNK        -0.1791 
     42 N         -77.2775   25.8563  -75.4589 N.am      6 UNK        -0.4762 
     43 C         -76.4314   25.4644  -74.4927 C.2       6 UNK         0.5007 
     44 O         -75.3016   25.9284  -74.3444 O.2       6 UNK        -0.5032 
     45 CA        -76.8947   24.2893  -73.6132 C.3       5 UNK         0.0783 
     46 C46       -77.8890   24.7245  -72.5034 C.3       11 UNK        -0.0857 
     47 S47       -77.0329   25.0792  -70.9308 S.3       11 UNK        -0.2512 
     48 C48       -77.6224   26.7528  -70.5186 C.3       11 UNK         0.0225 
     49 N         -77.4478   23.2281  -74.4576 N.am      5 UNK        -0.4615 
     50 C         -76.7152   22.2717  -75.0443 C.2       4 UNK         0.5053 
     51 O         -75.4992   22.1547  -74.8953 O.2       4 UNK        -0.5105 
     52 CA        -77.4536   21.2721  -75.9527 C.3       4 UNK         0.0263 
     53 CB        -77.8553   20.0206  -75.1557 C.3       4 UNK        -0.1981 
     54 N         -78.6419   21.8363  -76.5961 N.am      4 UNK        -0.4224 
     55 C         -78.6142   22.7816  -77.5458 C.2       3 UNK         0.4895 
     56 O         -77.5794   23.2574  -78.0108 O.2       3 UNK        -0.5091 
     57 CA        -79.9739   23.3136  -78.0320 C.3       3 UNK         0.0250 
     58 CB        -80.4988   22.4582  -79.1962 C.3       3 UNK        -0.1996 
     59 N         -81.0038   23.4053  -76.9877 N.am      3 UNK        -0.4254 
     60 C         -80.8852   24.1028  -75.8495 C.2       2 UNK         0.5004 
     61 O         -79.8467   24.6669  -75.4943 O.2       2 UNK        -0.5226 
     62 CA        -82.1134   24.1467  -74.9286 C.3       2 UNK         0.0269 
     63 CB        -82.0178   23.0459  -73.8604 C.3       2 UNK        -0.1926 
     64 N         -82.1809   25.4465  -74.2645 N.am      2 UNK        -0.4687 
     65 C         -82.5453   26.5896  -74.8554 C.2       1 UNK         0.5165 
     66 O         -83.0799   26.6352  -75.9647 O.2       1 UNK        -0.5079 
     67 H67       -81.4677   27.7442  -69.6675 H         1 UNK         0.0900 
     68 H68       -83.1176   28.0891  -70.1906 H         1 UNK         0.0900 
     69 H69       -82.6311   26.4278  -69.8438 H         1 UNK         0.0900 
     70 H70       -83.2571   28.4639  -72.3600 H         1 UNK         0.2959 
     71 H71       -82.9612   28.6343  -74.4958 H         1 UNK         0.1079 
     72 H72       -80.7712   28.5282  -75.5856 H         1 UNK         0.0837 
     73 H73       -80.0693   27.6767  -74.2366 H         1 UNK         0.0837 
     74 H74       -78.4797   29.7805  -75.2293 H         1 UNK         0.0685 
     75 H75       -78.3569   31.1982  -74.2186 H         1 UNK         0.0685 
     76 H76       -79.1164   28.2049  -72.2390 H         1 UNK         0.1434 
     77 H77       -75.0792   27.6129  -70.9831 H         1 UNK         0.1329 
     78 H78       -75.9459   30.4160  -74.1071 H         1 UNK         0.1335 
     79 H79       -73.2858   28.5019  -72.3630 H         1 UNK         0.0680 
     80 H80       -73.6081   29.5628  -73.7048 H         1 UNK         0.0680 
     81 H81       -73.9674   32.9818  -72.3180 H         1 UNK         0.1032 
     82 H82       -74.0746   31.8935  -73.6552 H         1 UNK         0.1032 
     83 H83       -72.2976   33.5710  -73.8975 H         1 UNK         0.0461 
     84 H84       -69.4128   32.5771  -73.1033 H         1 UNK         0.3453 
     85 H85       -69.2015   33.4716  -71.6176 H         1 UNK         0.3453 
     86 H86       -71.5508   32.1456  -75.3013 H         1 UNK         0.2984 
     87 H87       -70.8087   30.3871  -76.3344 H         1 UNK         0.0554 
     88 H88       -68.5811   31.3175  -75.7154 H         1 UNK         0.0847 
     89 H89       -68.3990   29.7939  -76.5673 H         1 UNK         0.0847 
     90 H90       -68.1932   29.8576  -74.8166 H         1 UNK         0.0847 
     91 H91       -69.7391   27.9561  -75.1224 H         1 UNK         0.3141 
     92 H92       -70.8354   25.9894  -75.7704 H         1 UNK         0.0743 
     93 H93       -72.8633   26.5089  -73.5271 H         1 UNK         0.0784 
     94 H94       -71.9479   25.0238  -73.7624 H         1 UNK         0.0784 
     95 H95       -71.1167   26.5128  -73.3389 H         1 UNK         0.0784 
     96 H96       -73.7775   25.8112  -75.6853 H         1 UNK         0.3213 
     97 H97       -74.1588   25.4626  -79.1548 H         1 UNK         0.0855 
     98 H98       -74.1026   23.0233  -77.2925 H         1 UNK         0.0814 
     99 H99       -73.1993   23.1725  -78.7943 H         1 UNK         0.0814 
    100 H100      -74.9536   23.1349  -78.8332 H         1 UNK         0.0814 
    101 H101      -75.8751   24.7043  -76.9933 H         1 UNK         0.3105 
    102 H102      -76.8546   27.8393  -75.8818 H         1 UNK         0.0547 
    103 H103      -78.4790   26.2374  -77.9298 H         1 UNK         0.0837 
    104 H104      -78.2077   27.9740  -77.9453 H         1 UNK         0.0837 
    105 H105      -79.1822   27.2498  -76.6753 H         1 UNK         0.0837 
    106 H106      -78.1898   25.4038  -75.5068 H         1 UNK         0.3020 
    107 H107      -75.9990   23.8904  -73.1301 H         1 UNK         0.1245 
    108 H108      -78.5963   23.9215  -72.2900 H         1 UNK         0.0781 
    109 H109      -78.5048   25.5707  -72.8140 H         1 UNK         0.0781 
    110 H110      -77.2549   27.0208  -69.5272 H         1 UNK         0.0836 
    111 H111      -78.7108   26.7397  -70.4454 H         1 UNK         0.0836 
    112 H112      -78.4285   23.3129  -74.6941 H         1 UNK         0.3022 
    113 H113      -76.7577   20.9686  -76.7381 H         1 UNK         0.0747 
    114 H114      -78.3068   19.2666  -75.8008 H         1 UNK         0.0793 
    115 H115      -76.9843   19.5619  -74.6854 H         1 UNK         0.0793 
    116 H116      -78.5669   20.2564  -74.3632 H         1 UNK         0.0793 
    117 H117      -79.5399   21.5034  -76.2770 H         1 UNK         0.3047 
    118 H118      -79.8075   24.3248  -78.4070 H         1 UNK         0.0822 
    119 H119      -81.4014   22.8885  -79.6306 H         1 UNK         0.0807 
    120 H120      -80.7296   21.4403  -78.8794 H         1 UNK         0.0807 
    121 H121      -79.7590   22.3908  -79.9955 H         1 UNK         0.0807 
    122 H122      -81.8851   22.9548  -77.1899 H         1 UNK         0.2946 
    123 H123      -83.0197   24.0005  -75.5206 H         1 UNK         0.1144 
    124 H124      -81.9798   22.0562  -74.3173 H         1 UNK         0.0793 
    125 H125      -82.8829   23.0631  -73.1972 H         1 UNK         0.0793 
    126 H126      -81.1238   23.1580  -73.2448 H         1 UNK         0.0793 
    127 H127      -81.6853   25.5367  -73.3797 H         1 UNK         0.2896 
@<TRIPOS>BOND
     1    1    2 1    
     2    1   67 1    
     3    1   68 1    
     4    1   69 1    
     5    2    3 2    
     6    2    4 am   BACKBONE|DICT|INTERRES
     7    4    5 1    
     8    4   70 1    
     9    5    6 1    
    10    5   65 1    
    11    5   71 1    
    12    6    7 1    
    13    6   72 1    
    14    6   73 1    
    15    7    8 1    
    16    8    9 1    
    17    8   74 1    
    18    8   75 1    
    19    9   10 ar   
    20    9   14 ar   
    21   10   11 ar   
    22   10   76 1    
    23   11   12 ar   
    24   11   48 1    
    25   12   13 ar   
    26   12   77 1    
    27   13   14 ar   
    28   13   15 1    
    29   14   78 1    
    30   15   16 1    
    31   15   79 1    
    32   15   80 1    
    33   16   17 1    
    34   17   18 1    
    35   17   81 1    
    36   17   82 1    
    37   18   19 1    
    38   18   22 1    
    39   18   83 1    
    40   19   20 am   BACKBONE|DICT|INTERRES
    41   19   21 2    
    42   20   84 1    
    43   20   85 1    
    44   22   23 am   BACKBONE|DICT|INTERRES
    45   22   86 1    
    46   23   24 2    
    47   23   25 1    
    48   25   26 1    
    49   25   27 1    
    50   25   87 1    
    51   26   88 1    
    52   26   89 1    
    53   26   90 1    
    54   27   28 am   BACKBONE|DICT|INTERRES
    55   27   91 1    
    56   28   29 2    
    57   28   30 1    
    58   30   31 1    
    59   30   32 1    
    60   30   92 1    
    61   31   93 1    
    62   31   94 1    
    63   31   95 1    
    64   32   33 am   BACKBONE|DICT|INTERRES
    65   32   96 1    
    66   33   34 2    
    67   33   35 1    
    68   35   36 1    
    69   35   37 1    
    70   35   97 1    
    71   36   98 1    
    72   36   99 1    
    73   36  100 1    
    74   37   38 am   BACKBONE|DICT|INTERRES
    75   37  101 1    
    76   38   39 2    
    77   38   40 1    
    78   40   41 1    
    79   40   42 1    
    80   40  102 1    
    81   41  103 1    
    82   41  104 1    
    83   41  105 1    
    84   42   43 am   BACKBONE|DICT|INTERRES
    85   42  106 1    
    86   43   44 2    
    87   43   45 1    
    88   45   46 1    
    89   45   49 1    
    90   45  107 1    
    91   46   47 1    
    92   46  108 1    
    93   46  109 1    
    94   47   48 1    
    95   48  110 1    
    96   48  111 1    
    97   49   50 am   BACKBONE|DICT|INTERRES
    98   49  112 1    
    99   50   51 2    
   100   50   52 1    
   101   52   53 1    
   102   52   54 1    
   103   52  113 1    
   104   53  114 1    
   105   53  115 1    
   106   53  116 1    
   107   54   55 am   BACKBONE|DICT|INTERRES
   108   54  117 1    
   109   55   56 2    
   110   55   57 1    
   111   57   58 1    
   112   57   59 1    
   113   57  118 1    
   114   58  119 1    
   115   58  120 1    
   116   58  121 1    
   117   59   60 am   BACKBONE|DICT|INTERRES
   118   59  122 1    
   119   60   61 2    
   120   60   62 1    
   121   62   63 1    
   122   62   64 1    
   123   62  123 1    
   124   63  124 1    
   125   63  125 1    
   126   63  126 1    
   127   64   65 am   BACKBONE|DICT|INTERRES
   128   64  127 1    
   129   65   66 2    
@<TRIPOS>SUBSTRUCTURE
     1 UNK         1 GROUP             0       ****    0 ROOT    
