@<TRIPOS>MOLECULE
3R135
127   129    1
SMALL
USER_CHARGES


@<TRIPOS>ATOM
      1 CA        -82.9585   22.9840  -71.0667 C.3       0 UNK        -0.1998 
      2 C         -82.8624   24.4633  -71.4089 C.2       0 UNK         0.4909 
      3 O         -83.6903   25.2536  -70.9547 O.2       0 UNK        -0.5240 
      4 N         -81.8613   24.8420  -72.2083 N.am      1 UNK        -0.4739 
      5 CA        -81.6201   26.2010  -72.6868 C.3       1 UNK         0.0864 
      6 C6        -80.9038   27.0741  -71.6222 C.3       11 UNK        -0.0881 
      7 S7        -81.0626   28.8650  -71.9507 S.3       11 UNK        -0.2682 
      8 C8        -79.6590   29.5585  -71.0169 C.3       11 UNK         0.0289 
      9 C9        -78.3185   29.1928  -71.6381 C.ar      11 UNK        -0.0687 
     10 C10       -77.5488   28.1632  -71.0882 C.ar      11 UNK        -0.0823 
     11 C11       -76.3435   27.7834  -71.6845 C.ar      11 UNK        -0.0830 
     12 C12       -75.8849   28.4761  -72.8073 C.ar      11 UNK        -0.1021 
     13 C13       -76.6221   29.5349  -73.3420 C.ar      11 UNK        -0.0753 
     14 C14       -77.8469   29.8809  -72.7617 C.ar      11 UNK        -0.0933 
     15 C15       -76.0933   30.2911  -74.5529 C.3       11 UNK         0.0166 
     16 S16       -75.4975   31.9603  -74.1298 S.3       11 UNK        -0.2615 
     17 C17       -74.1508   31.6367  -72.9351 C.3       11 UNK        -0.0865 
     18 CA        -72.7339   31.8116  -73.5434 C.3       10 UNK         0.0862 
     19 C         -71.6474   31.8559  -72.4253 C.2       10 UNK         0.5551 
     20 N         -70.6574   30.9707  -72.4030 N.am      10 UNK        -0.7319 
     21 O         -71.7016   32.7243  -71.5580 O.2       10 UNK        -0.5018 
     22 N         -72.4710   30.8283  -74.6072 N.am      10 UNK        -0.4509 
     23 C         -71.5502   30.9745  -75.5685 C.2       10 UNK         0.4899 
     24 O         -70.8907   32.0029  -75.7302 O.2       10 UNK        -0.4839 
     25 CA        -71.3248   29.7615  -76.4958 C.3       9 UNK         0.0222 
     26 CB        -69.9737   29.8241  -77.2391 C.3       9 UNK        -0.1966 
     27 N         -71.4789   28.4599  -75.8283 N.am      9 UNK        -0.4218 
     28 C         -70.8034   28.0078  -74.7570 C.2       9 UNK         0.5020 
     29 O         -69.9702   28.6803  -74.1482 O.2       9 UNK        -0.5274 
     30 CA        -71.1224   26.5905  -74.2372 C.3       8 UNK         0.0270 
     31 CB        -71.8486   26.6783  -72.8853 C.3       8 UNK        -0.1976 
     32 N         -71.9298   25.7874  -75.1598 N.am      8 UNK        -0.4313 
     33 C         -71.4710   25.2323  -76.2931 C.2       8 UNK         0.5041 
     34 O         -70.2850   25.2459  -76.6244 O.2       8 UNK        -0.5577 
     35 CA        -72.5045   24.5866  -77.2417 C.3       7 UNK         0.0284 
     36 CB        -72.5353   23.0625  -77.0448 C.3       7 UNK        -0.1958 
     37 N         -73.8644   25.1149  -77.0898 N.am      7 UNK        -0.4454 
     38 C         -74.2157   26.4026  -77.2161 C.2       7 UNK         0.5089 
     39 O         -73.4476   27.2803  -77.6084 O.2       7 UNK        -0.5125 
     40 CA        -75.6265   26.8082  -76.7529 C.3       6 UNK         0.0408 
     41 CB        -76.5058   27.1561  -77.9615 C.3       6 UNK        -0.1791 
     42 N         -76.3158   25.8381  -75.8891 N.am      6 UNK        -0.4762 
     43 C         -75.8676   25.3751  -74.7086 C.2       6 UNK         0.5007 
     44 O         -74.7652   25.6742  -74.2471 O.2       6 UNK        -0.5032 
     45 CA        -76.7743   24.3911  -73.9356 C.3       5 UNK         0.0783 
     46 C46       -77.4456   25.0691  -72.7153 C.3       11 UNK        -0.0857 
     47 S47       -76.4631   25.0198  -71.1749 S.3       11 UNK        -0.2512 
     48 C48       -75.5488   26.6025  -71.1438 C.3       11 UNK         0.0225 
     49 N         -77.7928   23.7646  -74.7873 N.am      5 UNK        -0.4615 
     50 C         -77.5551   22.8098  -75.6955 C.2       4 UNK         0.5053 
     51 O         -76.4243   22.4103  -75.9731 O.2       4 UNK        -0.5105 
     52 CA        -78.7654   22.1950  -76.4144 C.3       4 UNK         0.0263 
     53 CB        -79.3034   20.9853  -75.6311 C.3       4 UNK        -0.1981 
     54 N         -79.8484   23.1594  -76.6370 N.am      4 UNK        -0.4224 
     55 C         -80.5990   23.2109  -77.7487 C.2       3 UNK         0.4895 
     56 O         -80.4759   22.4303  -78.6937 O.2       3 UNK        -0.5091 
     57 CA        -81.6764   24.3125  -77.8381 C.3       3 UNK         0.0250 
     58 CB        -83.0537   23.7439  -77.4591 C.3       3 UNK        -0.1996 
     59 N         -81.3976   25.4827  -77.0023 N.am      3 UNK        -0.4254 
     60 C         -80.3500   26.3038  -77.1548 C.2       2 UNK         0.5004 
     61 O         -79.5799   26.2397  -78.1112 O.2       2 UNK        -0.5226 
     62 CA        -80.0790   27.3406  -76.0445 C.3       2 UNK         0.0269 
     63 CB        -80.2977   28.7697  -76.5669 C.3       2 UNK        -0.1926 
     64 N         -80.8439   27.1674  -74.8017 N.am      2 UNK        -0.4687 
     65 C         -80.8255   26.0942  -74.0008 C.2       1 UNK         0.5165 
     66 O         -80.2254   25.0484  -74.2778 O.2       1 UNK        -0.5079 
     67 H67       -83.9135   22.5820  -71.4040 H         1 UNK         0.0900 
     68 H68       -82.8908   22.8435  -69.9883 H         1 UNK         0.0900 
     69 H69       -82.1625   22.4049  -71.5346 H         1 UNK         0.0900 
     70 H70       -81.2278   24.1579  -72.6040 H         1 UNK         0.2959 
     71 H71       -82.5893   26.6453  -72.9259 H         1 UNK         0.1079 
     72 H72       -79.8560   26.7866  -71.5371 H         1 UNK         0.0837 
     73 H73       -81.3390   26.8977  -70.6374 H         1 UNK         0.0837 
     74 H74       -79.7587   30.6445  -70.9879 H         1 UNK         0.0685 
     75 H75       -79.7120   29.2203  -69.9808 H         1 UNK         0.0685 
     76 H76       -77.9058   27.6257  -70.2203 H         1 UNK         0.1434 
     77 H77       -74.9530   28.1865  -73.2714 H         1 UNK         0.1329 
     78 H78       -78.4316   30.6870  -73.1834 H         1 UNK         0.1335 
     79 H79       -76.8857   30.3758  -75.2981 H         1 UNK         0.0680 
     80 H80       -75.2816   29.7431  -75.0317 H         1 UNK         0.0680 
     81 H81       -74.2537   30.6481  -72.4890 H         1 UNK         0.1032 
     82 H82       -74.2988   32.3401  -72.1133 H         1 UNK         0.1032 
     83 H83       -72.7069   32.8008  -74.0049 H         1 UNK         0.0461 
     84 H84       -70.5648   30.2558  -73.1171 H         1 UNK         0.3453 
     85 H85       -69.9690   31.0293  -71.6701 H         1 UNK         0.3453 
     86 H86       -72.9576   29.9489  -74.5369 H         1 UNK         0.2984 
     87 H87       -72.1145   29.8089  -77.2469 H         1 UNK         0.0554 
     88 H88       -69.8494   28.9719  -77.9072 H         1 UNK         0.0847 
     89 H89       -69.1320   29.8322  -76.5457 H         1 UNK         0.0847 
     90 H90       -69.9015   30.7250  -77.8497 H         1 UNK         0.0847 
     91 H91       -72.1470   27.8384  -76.2760 H         1 UNK         0.3141 
     92 H92       -70.1706   26.0787  -74.0808 H         1 UNK         0.0743 
     93 H93       -72.7782   27.2400  -72.9695 H         1 UNK         0.0784 
     94 H94       -72.0863   25.6892  -72.4932 H         1 UNK         0.0784 
     95 H95       -71.2309   27.1828  -72.1409 H         1 UNK         0.0784 
     96 H96       -72.9201   25.7073  -74.9401 H         1 UNK         0.3213 
     97 H97       -72.1826   24.7978  -78.2635 H         1 UNK         0.0855 
     98 H98       -72.8807   22.7918  -76.0460 H         1 UNK         0.0814 
     99 H99       -71.5415   22.6315  -77.1748 H         1 UNK         0.0814 
    100 H100      -73.1927   22.5809  -77.7690 H         1 UNK         0.0814 
    101 H101      -74.5658   24.4702  -76.7526 H         1 UNK         0.3105 
    102 H102      -75.5008   27.7168  -76.1636 H         1 UNK         0.0547 
    103 H103      -75.9843   27.8189  -78.6537 H         1 UNK         0.0837 
    104 H104      -76.7983   26.2667  -78.5209 H         1 UNK         0.0837 
    105 H105      -77.4097   27.6785  -77.6526 H         1 UNK         0.0837 
    106 H106      -77.2097   25.5009  -76.2149 H         1 UNK         0.3020 
    107 H107      -76.1249   23.5907  -73.5727 H         1 UNK         0.1245 
    108 H108      -78.3558   24.5264  -72.4558 H         1 UNK         0.0781 
    109 H109      -77.7920   26.0738  -72.9570 H         1 UNK         0.0781 
    110 H110      -74.6245   26.4701  -71.7049 H         1 UNK         0.0836 
    111 H111      -75.2480   26.8152  -70.1173 H         1 UNK         0.0836 
    112 H112      -78.7460   24.0654  -74.6028 H         1 UNK         0.3022 
    113 H113      -78.3939   21.8389  -77.3780 H         1 UNK         0.0747 
    114 H114      -80.0920   20.4753  -76.1846 H         1 UNK         0.0793 
    115 H115      -78.5141   20.2552  -75.4462 H         1 UNK         0.0793 
    116 H116      -79.7107   21.2808  -74.6634 H         1 UNK         0.0793 
    117 H117      -80.0289   23.8359  -75.9038 H         1 UNK         0.3047 
    118 H118      -81.7149   24.6465  -78.8773 H         1 UNK         0.0822 
    119 H119      -83.8414   24.4851  -77.5960 H         1 UNK         0.0807 
    120 H120      -83.0813   23.4099  -76.4210 H         1 UNK         0.0807 
    121 H121      -83.3072   22.8862  -78.0839 H         1 UNK         0.0807 
    122 H122      -81.9828   25.6127  -76.1905 H         1 UNK         0.2946 
    123 H123      -79.0245   27.2384  -75.7803 H         1 UNK         0.1144 
    124 H124      -81.3453   28.9541  -76.8075 H         1 UNK         0.0793 
    125 H125      -79.7181   28.9515  -77.4732 H         1 UNK         0.0793 
    126 H126      -79.9841   29.5122  -75.8324 H         1 UNK         0.0793 
    127 H127      -81.3527   27.9806  -74.4822 H         1 UNK         0.2896 
@<TRIPOS>BOND
     1    1    2 1    
     2    1   67 1    
     3    1   68 1    
     4    1   69 1    
     5    2    3 2    
     6    2    4 am   BACKBONE|DICT|INTERRES
     7    4    5 1    
     8    4   70 1    
     9    5    6 1    
    10    5   65 1    
    11    5   71 1    
    12    6    7 1    
    13    6   72 1    
    14    6   73 1    
    15    7    8 1    
    16    8    9 1    
    17    8   74 1    
    18    8   75 1    
    19    9   10 ar   
    20    9   14 ar   
    21   10   11 ar   
    22   10   76 1    
    23   11   12 ar   
    24   11   48 1    
    25   12   13 ar   
    26   12   77 1    
    27   13   14 ar   
    28   13   15 1    
    29   14   78 1    
    30   15   16 1    
    31   15   79 1    
    32   15   80 1    
    33   16   17 1    
    34   17   18 1    
    35   17   81 1    
    36   17   82 1    
    37   18   19 1    
    38   18   22 1    
    39   18   83 1    
    40   19   20 am   BACKBONE|DICT|INTERRES
    41   19   21 2    
    42   20   84 1    
    43   20   85 1    
    44   22   23 am   BACKBONE|DICT|INTERRES
    45   22   86 1    
    46   23   24 2    
    47   23   25 1    
    48   25   26 1    
    49   25   27 1    
    50   25   87 1    
    51   26   88 1    
    52   26   89 1    
    53   26   90 1    
    54   27   28 am   BACKBONE|DICT|INTERRES
    55   27   91 1    
    56   28   29 2    
    57   28   30 1    
    58   30   31 1    
    59   30   32 1    
    60   30   92 1    
    61   31   93 1    
    62   31   94 1    
    63   31   95 1    
    64   32   33 am   BACKBONE|DICT|INTERRES
    65   32   96 1    
    66   33   34 2    
    67   33   35 1    
    68   35   36 1    
    69   35   37 1    
    70   35   97 1    
    71   36   98 1    
    72   36   99 1    
    73   36  100 1    
    74   37   38 am   BACKBONE|DICT|INTERRES
    75   37  101 1    
    76   38   39 2    
    77   38   40 1    
    78   40   41 1    
    79   40   42 1    
    80   40  102 1    
    81   41  103 1    
    82   41  104 1    
    83   41  105 1    
    84   42   43 am   BACKBONE|DICT|INTERRES
    85   42  106 1    
    86   43   44 2    
    87   43   45 1    
    88   45   46 1    
    89   45   49 1    
    90   45  107 1    
    91   46   47 1    
    92   46  108 1    
    93   46  109 1    
    94   47   48 1    
    95   48  110 1    
    96   48  111 1    
    97   49   50 am   BACKBONE|DICT|INTERRES
    98   49  112 1    
    99   50   51 2    
   100   50   52 1    
   101   52   53 1    
   102   52   54 1    
   103   52  113 1    
   104   53  114 1    
   105   53  115 1    
   106   53  116 1    
   107   54   55 am   BACKBONE|DICT|INTERRES
   108   54  117 1    
   109   55   56 2    
   110   55   57 1    
   111   57   58 1    
   112   57   59 1    
   113   57  118 1    
   114   58  119 1    
   115   58  120 1    
   116   58  121 1    
   117   59   60 am   BACKBONE|DICT|INTERRES
   118   59  122 1    
   119   60   61 2    
   120   60   62 1    
   121   62   63 1    
   122   62   64 1    
   123   62  123 1    
   124   63  124 1    
   125   63  125 1    
   126   63  126 1    
   127   64   65 am   BACKBONE|DICT|INTERRES
   128   64  127 1    
   129   65   66 2    
@<TRIPOS>SUBSTRUCTURE
     1 UNK         1 GROUP             0       ****    0 ROOT    
