@<TRIPOS>MOLECULE
3R135
127   129    1
SMALL
USER_CHARGES


@<TRIPOS>ATOM
      1 CA        -84.1532   26.4423  -72.8228 C.3       0 UNK        -0.1998 
      2 C         -83.9199   27.5082  -73.8911 C.2       0 UNK         0.4909 
      3 O         -84.8829   27.9203  -74.5347 O.2       0 UNK        -0.5240 
      4 N         -82.6916   27.9910  -74.1393 N.am      1 UNK        -0.4739 
      5 CA        -81.3990   27.6590  -73.5102 C.3       1 UNK         0.0864 
      6 C6        -81.3331   27.9466  -71.9818 C.3       11 UNK        -0.0881 
      7 S7        -81.7013   29.6990  -71.6086 S.3       11 UNK        -0.2682 
      8 C8        -80.4575   30.1299  -70.3430 C.3       11 UNK         0.0289 
      9 C9        -79.0254   29.8753  -70.7976 C.ar      11 UNK        -0.0687 
     10 C10       -78.5202   30.4974  -71.9421 C.ar      11 UNK        -0.0823 
     11 C11       -77.2287   30.2100  -72.3930 C.ar      11 UNK        -0.0830 
     12 C12       -76.4274   29.3226  -71.6670 C.ar      11 UNK        -0.1021 
     13 C13       -76.9038   28.7232  -70.4944 C.ar      11 UNK        -0.0753 
     14 C14       -78.2090   29.0000  -70.0755 C.ar      11 UNK        -0.0933 
     15 C15       -76.0592   27.7423  -69.6808 C.3       11 UNK         0.0166 
     16 S16       -74.3108   28.2305  -69.4729 S.3       11 UNK        -0.2615 
     17 C17       -73.5305   27.4465  -70.9254 C.3       11 UNK        -0.0865 
     18 CA        -72.5848   28.4095  -71.7017 C.3       10 UNK         0.0862 
     19 C         -71.1010   28.2241  -71.2575 C.2       10 UNK         0.5551 
     20 N         -70.2056   27.7261  -72.1034 N.am      10 UNK        -0.7319 
     21 O         -70.7553   28.5417  -70.1224 O.2       10 UNK        -0.5018 
     22 N         -72.8109   28.3298  -73.1546 N.am      10 UNK        -0.4509 
     23 C         -72.3392   29.2040  -74.0536 C.2       10 UNK         0.4899 
     24 O         -71.7612   30.2477  -73.7458 O.2       10 UNK        -0.4839 
     25 CA        -72.5441   28.8555  -75.5441 C.3       9 UNK         0.0222 
     26 CB        -71.5418   29.5842  -76.4635 C.3       9 UNK        -0.1966 
     27 N         -72.5434   27.4141  -75.8422 N.am      9 UNK        -0.4218 
     28 C         -71.5826   26.5230  -75.5486 C.2       9 UNK         0.5020 
     29 O         -70.5526   26.8067  -74.9340 O.2       9 UNK        -0.5274 
     30 CA        -71.7958   25.0624  -75.9908 C.3       8 UNK         0.0270 
     31 CB        -72.0671   24.1551  -74.7807 C.3       8 UNK        -0.1976 
     32 N         -72.8506   24.8767  -76.9979 N.am      8 UNK        -0.4313 
     33 C         -72.6574   25.0999  -78.3066 C.2       8 UNK         0.5041 
     34 O         -71.6213   25.5772  -78.7709 O.2       8 UNK        -0.5577 
     35 CA        -73.7922   24.7199  -79.2645 C.3       7 UNK         0.0284 
     36 CB        -73.9588   23.1921  -79.3548 C.3       7 UNK        -0.1958 
     37 N         -75.0552   25.3401  -78.8616 N.am      7 UNK        -0.4454 
     38 C         -75.6999   26.2665  -79.5839 C.2       7 UNK         0.5089 
     39 O         -75.3007   26.6937  -80.6682 O.2       7 UNK        -0.5125 
     40 CA        -77.0225   26.8145  -79.0224 C.3       6 UNK         0.0408 
     41 CB        -78.2121   25.9862  -79.5322 C.3       6 UNK        -0.1791 
     42 N         -77.0742   26.8992  -77.5614 N.am      6 UNK        -0.4762 
     43 C         -76.3539   27.7601  -76.8282 C.2       6 UNK         0.5007 
     44 O         -75.4733   28.4793  -77.2977 O.2       6 UNK        -0.5032 
     45 CA        -76.6623   27.8276  -75.3221 C.3       5 UNK         0.0783 
     46 C46       -77.9455   28.6363  -75.0261 C.3       11 UNK        -0.0857 
     47 S47       -77.7198   30.4442  -75.1438 S.3       11 UNK        -0.2512 
     48 C48       -76.7031   30.8400  -73.6766 C.3       11 UNK         0.0225 
     49 N         -76.7599   26.4836  -74.7602 N.am      5 UNK        -0.4615 
     50 C         -75.7611   25.8557  -74.1316 C.2       4 UNK         0.5053 
     51 O         -74.6597   26.3601  -73.9311 O.2       4 UNK        -0.5105 
     52 CA        -76.0113   24.4058  -73.6831 C.3       4 UNK         0.0263 
     53 CB        -76.6049   24.3770  -72.2671 C.3       4 UNK        -0.1981 
     54 N         -76.8802   23.6671  -74.5988 N.am      4 UNK        -0.4224 
     55 C         -76.6214   23.4639  -75.8987 C.2       3 UNK         0.4895 
     56 O         -75.5788   23.8183  -76.4537 O.2       3 UNK        -0.5091 
     57 CA        -77.7388   22.8165  -76.7348 C.3       3 UNK         0.0250 
     58 CB        -77.5219   21.2986  -76.8284 C.3       3 UNK        -0.1996 
     59 N         -79.0984   23.0898  -76.2443 N.am      3 UNK        -0.4254 
     60 C         -79.6405   24.3071  -76.0816 C.2       2 UNK         0.5004 
     61 O         -79.0358   25.3535  -76.3289 O.2       2 UNK        -0.5226 
     62 CA        -81.0917   24.3701  -75.5624 C.3       2 UNK         0.0269 
     63 CB        -81.4403   23.2300  -74.5780 C.3       2 UNK        -0.1926 
     64 N         -81.4250   25.6765  -74.9753 N.am      2 UNK        -0.4687 
     65 C         -80.8696   26.2565  -73.8978 C.2       1 UNK         0.5165 
     66 O         -79.9767   25.7353  -73.2286 O.2       1 UNK        -0.5079 
     67 H67       -84.3317   26.9141  -71.8571 H         1 UNK         0.0900 
     68 H68       -85.0359   25.8533  -73.0707 H         1 UNK         0.0900 
     69 H69       -83.3237   25.7461  -72.7242 H         1 UNK         0.0900 
     70 H70       -82.6204   28.7017  -74.8545 H         1 UNK         0.2959 
     71 H71       -80.6889   28.3425  -73.9763 H         1 UNK         0.1079 
     72 H72       -82.0167   27.3141  -71.4177 H         1 UNK         0.0837 
     73 H73       -80.3403   27.7053  -71.6009 H         1 UNK         0.0837 
     74 H74       -80.5653   31.1851  -70.0888 H         1 UNK         0.0685 
     75 H75       -80.6818   29.5709  -69.4332 H         1 UNK         0.0685 
     76 H76       -79.1477   31.1751  -72.5052 H         1 UNK         0.1434 
     77 H77       -75.4317   29.1016  -72.0202 H         1 UNK         0.1329 
     78 H78       -78.5971   28.5214  -69.1866 H         1 UNK         0.1335 
     79 H79       -76.1247   26.7513  -70.1293 H         1 UNK         0.0680 
     80 H80       -76.4799   27.6421  -68.6791 H         1 UNK         0.0680 
     81 H81       -73.0144   26.5396  -70.6033 H         1 UNK         0.1032 
     82 H82       -74.3282   27.0890  -71.5726 H         1 UNK         0.1032 
     83 H83       -72.8447   29.4344  -71.4294 H         1 UNK         0.0461 
     84 H84       -69.2514   27.6165  -71.8002 H         1 UNK         0.3453 
     85 H85       -70.4640   27.4694  -73.0509 H         1 UNK         0.3453 
     86 H86       -73.3150   27.5113  -73.4907 H         1 UNK         0.2984 
     87 H87       -73.5388   29.2231  -75.7909 H         1 UNK         0.0554 
     88 H88       -71.6208   30.6666  -76.3549 H         1 UNK         0.0847 
     89 H89       -71.7271   29.3528  -77.5125 H         1 UNK         0.0847 
     90 H90       -70.5120   29.3072  -76.2355 H         1 UNK         0.0847 
     91 H91       -73.3642   27.0673  -76.3175 H         1 UNK         0.3141 
     92 H92       -70.8511   24.7317  -76.4284 H         1 UNK         0.0743 
     93 H93       -71.2305   24.1824  -74.0812 H         1 UNK         0.0784 
     94 H94       -72.9508   24.4675  -74.2312 H         1 UNK         0.0784 
     95 H95       -72.2040   23.1163  -75.0812 H         1 UNK         0.0784 
     96 H96       -73.7303   24.4703  -76.6896 H         1 UNK         0.3213 
     97 H97       -73.4966   25.0673  -80.2569 H         1 UNK         0.0855 
     98 H98       -74.2279   22.7448  -78.3983 H         1 UNK         0.0814 
     99 H99       -73.0316   22.7204  -79.6824 H         1 UNK         0.0814 
    100 H100      -74.7304   22.9228  -80.0761 H         1 UNK         0.0814 
    101 H101      -75.4476   25.0368  -77.9758 H         1 UNK         0.3105 
    102 H102      -77.1396   27.8292  -79.4093 H         1 UNK         0.0547 
    103 H103      -79.1610   26.4095  -79.2026 H         1 UNK         0.0837 
    104 H104      -78.2304   25.9603  -80.6226 H         1 UNK         0.0837 
    105 H105      -78.1679   24.9553  -79.1840 H         1 UNK         0.0837 
    106 H106      -77.7866   26.3341  -77.0990 H         1 UNK         0.3020 
    107 H107      -75.8251   28.3439  -74.8490 H         1 UNK         0.1245 
    108 H108      -78.3028   28.4058  -74.0220 H         1 UNK         0.0781 
    109 H109      -78.7583   28.3411  -75.6928 H         1 UNK         0.0781 
    110 H110      -76.6752   31.9234  -73.5524 H         1 UNK         0.0836 
    111 H111      -75.6734   30.5336  -73.8665 H         1 UNK         0.0836 
    112 H112      -77.6246   25.9836  -74.9345 H         1 UNK         0.3022 
    113 H113      -75.0526   23.8873  -73.6584 H         1 UNK         0.0747 
    114 H114      -77.5569   24.9073  -72.2148 H         1 UNK         0.0793 
    115 H115      -76.7687   23.3555  -71.9237 H         1 UNK         0.0793 
    116 H116      -75.9267   24.8494  -71.5562 H         1 UNK         0.0793 
    117 H117      -77.7692   23.3580  -74.2338 H         1 UNK         0.3047 
    118 H118      -77.6631   23.2290  -77.7414 H         1 UNK         0.0822 
    119 H119      -76.5262   21.0698  -77.2119 H         1 UNK         0.0807 
    120 H120      -78.2401   20.8352  -77.5051 H         1 UNK         0.0807 
    121 H121      -77.6152   20.8151  -75.8551 H         1 UNK         0.0807 
    122 H122      -79.6637   22.2828  -76.0225 H         1 UNK         0.2946 
    123 H123      -81.7286   24.2604  -76.4417 H         1 UNK         0.1144 
    124 H124      -82.4462   23.3527  -74.1761 H         1 UNK         0.0793 
    125 H125      -80.7504   23.1938  -73.7339 H         1 UNK         0.0793 
    126 H126      -81.4163   22.2555  -75.0664 H         1 UNK         0.0793 
    127 H127      -82.1187   26.2133  -75.4775 H         1 UNK         0.2896 
@<TRIPOS>BOND
     1    1    2 1    
     2    1   67 1    
     3    1   68 1    
     4    1   69 1    
     5    2    3 2    
     6    2    4 am   BACKBONE|DICT|INTERRES
     7    4    5 1    
     8    4   70 1    
     9    5    6 1    
    10    5   65 1    
    11    5   71 1    
    12    6    7 1    
    13    6   72 1    
    14    6   73 1    
    15    7    8 1    
    16    8    9 1    
    17    8   74 1    
    18    8   75 1    
    19    9   10 ar   
    20    9   14 ar   
    21   10   11 ar   
    22   10   76 1    
    23   11   12 ar   
    24   11   48 1    
    25   12   13 ar   
    26   12   77 1    
    27   13   14 ar   
    28   13   15 1    
    29   14   78 1    
    30   15   16 1    
    31   15   79 1    
    32   15   80 1    
    33   16   17 1    
    34   17   18 1    
    35   17   81 1    
    36   17   82 1    
    37   18   19 1    
    38   18   22 1    
    39   18   83 1    
    40   19   20 am   BACKBONE|DICT|INTERRES
    41   19   21 2    
    42   20   84 1    
    43   20   85 1    
    44   22   23 am   BACKBONE|DICT|INTERRES
    45   22   86 1    
    46   23   24 2    
    47   23   25 1    
    48   25   26 1    
    49   25   27 1    
    50   25   87 1    
    51   26   88 1    
    52   26   89 1    
    53   26   90 1    
    54   27   28 am   BACKBONE|DICT|INTERRES
    55   27   91 1    
    56   28   29 2    
    57   28   30 1    
    58   30   31 1    
    59   30   32 1    
    60   30   92 1    
    61   31   93 1    
    62   31   94 1    
    63   31   95 1    
    64   32   33 am   BACKBONE|DICT|INTERRES
    65   32   96 1    
    66   33   34 2    
    67   33   35 1    
    68   35   36 1    
    69   35   37 1    
    70   35   97 1    
    71   36   98 1    
    72   36   99 1    
    73   36  100 1    
    74   37   38 am   BACKBONE|DICT|INTERRES
    75   37  101 1    
    76   38   39 2    
    77   38   40 1    
    78   40   41 1    
    79   40   42 1    
    80   40  102 1    
    81   41  103 1    
    82   41  104 1    
    83   41  105 1    
    84   42   43 am   BACKBONE|DICT|INTERRES
    85   42  106 1    
    86   43   44 2    
    87   43   45 1    
    88   45   46 1    
    89   45   49 1    
    90   45  107 1    
    91   46   47 1    
    92   46  108 1    
    93   46  109 1    
    94   47   48 1    
    95   48  110 1    
    96   48  111 1    
    97   49   50 am   BACKBONE|DICT|INTERRES
    98   49  112 1    
    99   50   51 2    
   100   50   52 1    
   101   52   53 1    
   102   52   54 1    
   103   52  113 1    
   104   53  114 1    
   105   53  115 1    
   106   53  116 1    
   107   54   55 am   BACKBONE|DICT|INTERRES
   108   54  117 1    
   109   55   56 2    
   110   55   57 1    
   111   57   58 1    
   112   57   59 1    
   113   57  118 1    
   114   58  119 1    
   115   58  120 1    
   116   58  121 1    
   117   59   60 am   BACKBONE|DICT|INTERRES
   118   59  122 1    
   119   60   61 2    
   120   60   62 1    
   121   62   63 1    
   122   62   64 1    
   123   62  123 1    
   124   63  124 1    
   125   63  125 1    
   126   63  126 1    
   127   64   65 am   BACKBONE|DICT|INTERRES
   128   64  127 1    
   129   65   66 2    
@<TRIPOS>SUBSTRUCTURE
     1 UNK         1 GROUP             0       ****    0 ROOT    
