@<TRIPOS>MOLECULE
3R135
127   129    1
SMALL
USER_CHARGES


@<TRIPOS>ATOM
      1 CA        -79.7392   28.5155  -79.4479 C.3       0 UNK        -0.1998 
      2 C         -80.2974   28.4336  -78.0348 C.2       0 UNK         0.4909 
      3 O         -81.4036   28.9132  -77.7859 O.2       0 UNK        -0.5240 
      4 N         -79.5379   27.8205  -77.1175 N.am      1 UNK        -0.4739 
      5 CA        -79.8263   27.6593  -75.6849 C.3       1 UNK         0.0864 
      6 C6        -79.8837   29.0033  -74.9084 C.3       11 UNK        -0.0881 
      7 S7        -78.3213   29.9385  -75.0433 S.3       11 UNK        -0.2682 
      8 C8        -78.2115   30.7024  -73.3891 C.3       11 UNK         0.0289 
      9 C9        -77.5319   29.8598  -72.3062 C.ar      11 UNK        -0.0687 
     10 C10       -77.4632   28.4593  -72.3554 C.ar      11 UNK        -0.0823 
     11 C11       -76.8763   27.7364  -71.3111 C.ar      11 UNK        -0.0830 
     12 C12       -76.3477   28.4192  -70.2135 C.ar      11 UNK        -0.1021 
     13 C13       -76.4033   29.8129  -70.1508 C.ar      11 UNK        -0.0753 
     14 C14       -76.9952   30.5236  -71.1978 C.ar      11 UNK        -0.0933 
     15 C15       -75.8633   30.5504  -68.9340 C.3       11 UNK         0.0166 
     16 S16       -74.2517   31.3317  -69.2563 S.3       11 UNK        -0.2615 
     17 C17       -73.1494   29.8833  -69.4153 C.3       11 UNK        -0.0865 
     18 CA        -72.4099   29.8439  -70.7787 C.3       10 UNK         0.0862 
     19 C         -71.3417   28.7086  -70.8181 C.2       10 UNK         0.5551 
     20 N         -71.2968   27.8502  -71.8305 N.am      10 UNK        -0.7319 
     21 O         -70.5225   28.6096  -69.9078 O.2       10 UNK        -0.5018 
     22 N         -73.3467   29.8341  -71.9142 N.am      10 UNK        -0.4509 
     23 C         -73.0613   30.3150  -73.1277 C.2       10 UNK         0.4899 
     24 O         -72.0208   30.9139  -73.4104 O.2       10 UNK        -0.4839 
     25 CA        -74.1183   30.0803  -74.2202 C.3       9 UNK         0.0222 
     26 CB        -74.8255   31.4017  -74.5590 C.3       9 UNK        -0.1966 
     27 N         -73.5383   29.5205  -75.4452 N.am      9 UNK        -0.4218 
     28 C         -72.7626   28.4306  -75.5260 C.2       9 UNK         0.5020 
     29 O         -72.4818   27.7097  -74.5657 O.2       9 UNK        -0.5274 
     30 CA        -72.2274   28.0953  -76.9269 C.3       8 UNK         0.0270 
     31 CB        -71.1338   27.0102  -76.9043 C.3       8 UNK        -0.1976 
     32 N         -73.3173   27.6655  -77.8040 N.am      8 UNK        -0.4313 
     33 C         -74.0896   28.4915  -78.5242 C.2       8 UNK         0.5041 
     34 O         -73.9832   29.7184  -78.4753 O.2       8 UNK        -0.5577 
     35 CA        -75.1399   27.8728  -79.4682 C.3       7 UNK         0.0284 
     36 CB        -74.6937   28.0196  -80.9325 C.3       7 UNK        -0.1958 
     37 N         -75.4011   26.4575  -79.1933 N.am      7 UNK        -0.4454 
     38 C         -76.2784   26.0212  -78.2822 C.2       7 UNK         0.5089 
     39 O         -77.0179   26.7675  -77.6406 O.2       7 UNK        -0.5125 
     40 CA        -76.3357   24.5065  -77.9993 C.3       6 UNK         0.0408 
     41 CB        -75.4351   23.6430  -78.9116 C.3       6 UNK        -0.1791 
     42 N         -76.0510   24.2414  -76.5853 N.am      6 UNK        -0.4762 
     43 C         -74.9459   24.6093  -75.9137 C.2       6 UNK         0.5007 
     44 O         -73.9654   25.1213  -76.4541 O.2       6 UNK        -0.5032 
     45 CA        -74.9336   24.3937  -74.3853 C.3       5 UNK         0.0783 
     46 C46       -75.3445   25.7086  -73.6753 C.3       11 UNK        -0.0857 
     47 S47       -75.2197   25.5861  -71.8610 S.3       11 UNK        -0.2512 
     48 C48       -76.8436   26.2150  -71.3345 C.3       11 UNK         0.0225 
     49 N         -75.7672   23.2593  -73.9702 N.am      5 UNK        -0.4615 
     50 C         -75.5444   21.9777  -74.2907 C.2       4 UNK         0.5053 
     51 O         -74.5341   21.5897  -74.8778 O.2       4 UNK        -0.5105 
     52 CA        -76.6318   20.9485  -73.9161 C.3       4 UNK         0.0263 
     53 CB        -76.1769   20.1115  -72.7090 C.3       4 UNK        -0.1981 
     54 N         -77.9692   21.4953  -73.6383 N.am      4 UNK        -0.4224 
     55 C         -78.7040   22.2555  -74.4628 C.2       3 UNK         0.4895 
     56 O         -78.3090   22.6599  -75.5611 O.2       3 UNK        -0.5091 
     57 CA        -80.0959   22.6646  -73.9594 C.3       3 UNK         0.0250 
     58 CB        -80.0138   23.4687  -72.6449 C.3       3 UNK        -0.1996 
     59 N         -80.7223   23.4796  -74.9929 N.am      3 UNK        -0.4254 
     60 C         -82.0204   23.7708  -75.1237 C.2       2 UNK         0.5004 
     61 O         -82.9053   23.3124  -74.3984 O.2       2 UNK        -0.5226 
     62 CA        -82.3624   24.7694  -76.2499 C.3       2 UNK         0.0269 
     63 CB        -83.7928   25.3404  -76.1416 C.3       2 UNK        -0.1926 
     64 N         -81.3666   25.8505  -76.3501 N.am      2 UNK        -0.4687 
     65 C         -81.0386   26.7428  -75.3984 C.2       1 UNK         0.5165 
     66 O         -81.6177   26.8251  -74.3140 O.2       1 UNK        -0.5079 
     67 H67       -79.6305   29.5574  -79.7475 H         1 UNK         0.0900 
     68 H68       -80.4157   28.0270  -80.1486 H         1 UNK         0.0900 
     69 H69       -78.7632   28.0368  -79.5286 H         1 UNK         0.0900 
     70 H70       -78.6225   27.4628  -77.3940 H         1 UNK         0.2959 
     71 H71       -78.9744   27.1027  -75.2911 H         1 UNK         0.1079 
     72 H72       -80.0874   28.8263  -73.8508 H         1 UNK         0.0837 
     73 H73       -80.7010   29.6282  -75.2714 H         1 UNK         0.0837 
     74 H74       -77.6693   31.6415  -73.5041 H         1 UNK         0.0685 
     75 H75       -79.2114   30.9760  -73.0498 H         1 UNK         0.0685 
     76 H76       -77.8794   27.9223  -73.1937 H         1 UNK         0.1434 
     77 H77       -75.9052   27.8599  -69.4003 H         1 UNK         0.1329 
     78 H78       -77.0488   31.6024  -71.1395 H         1 UNK         0.1335 
     79 H79       -76.5735   31.3241  -68.6386 H         1 UNK         0.0680 
     80 H80       -75.7759   29.8786  -68.0785 H         1 UNK         0.0680 
     81 H81       -73.7065   28.9593  -69.2583 H         1 UNK         0.1032 
     82 H82       -72.4311   29.9373  -68.5950 H         1 UNK         0.1032 
     83 H83       -71.8337   30.7692  -70.8405 H         1 UNK         0.0461 
     84 H84       -71.9215   27.9298  -72.6258 H         1 UNK         0.3453 
     85 H85       -70.5934   27.1297  -71.8265 H         1 UNK         0.3453 
     86 H86       -74.2287   29.3666  -71.7583 H         1 UNK         0.2984 
     87 H87       -74.8614   29.3685  -73.8547 H         1 UNK         0.0554 
     88 H88       -75.6226   31.2533  -75.2869 H         1 UNK         0.0847 
     89 H89       -75.2731   31.8421  -73.6675 H         1 UNK         0.0847 
     90 H90       -74.1312   32.1366  -74.9687 H         1 UNK         0.0847 
     91 H91       -73.7267   30.0154  -76.3094 H         1 UNK         0.3141 
     92 H92       -71.7721   29.0029  -77.3296 H         1 UNK         0.0743 
     93 H93       -70.2941   27.3193  -76.2805 H         1 UNK         0.0784 
     94 H94       -71.5031   26.0656  -76.5042 H         1 UNK         0.0784 
     95 H95       -70.7426   26.8205  -77.9038 H         1 UNK         0.0784 
     96 H96       -73.5444   26.6773  -77.7683 H         1 UNK         0.3213 
     97 H97       -76.0634   28.4423  -79.3401 H         1 UNK         0.0855 
     98 H98       -74.5215   29.0670  -81.1848 H         1 UNK         0.0814 
     99 H99       -75.4534   27.6446  -81.6185 H         1 UNK         0.0814 
    100 H100      -73.7659   27.4810  -81.1295 H         1 UNK         0.0814 
    101 H101      -74.8248   25.7824  -79.6750 H         1 UNK         0.3105 
    102 H102      -77.3693   24.2013  -78.1683 H         1 UNK         0.0547 
    103 H103      -75.6985   23.7703  -79.9624 H         1 UNK         0.0837 
    104 H104      -74.3764   23.8783  -78.7996 H         1 UNK         0.0837 
    105 H105      -75.5571   22.5843  -78.6824 H         1 UNK         0.0837 
    106 H106      -76.8042   23.7930  -76.0704 H         1 UNK         0.3020 
    107 H107      -73.9015   24.1638  -74.1104 H         1 UNK         0.1245 
    108 H108      -74.7049   26.5337  -73.9891 H         1 UNK         0.0781 
    109 H109      -76.3580   25.9942  -73.9619 H         1 UNK         0.0781 
    110 H110      -77.0549   25.8349  -70.3338 H         1 UNK         0.0836 
    111 H111      -77.6303   25.8165  -71.9756 H         1 UNK         0.0836 
    112 H112      -76.6049   23.4840  -73.4567 H         1 UNK         0.3022 
    113 H113      -76.7347   20.2803  -74.7735 H         1 UNK         0.0747 
    114 H114      -76.8731   19.2984  -72.5023 H         1 UNK         0.0793 
    115 H115      -75.2011   19.6584  -72.8909 H         1 UNK         0.0793 
    116 H116      -76.0902   20.7194  -71.8074 H         1 UNK         0.0793 
    117 H117      -78.3763   21.2261  -72.7540 H         1 UNK         0.3047 
    118 H118      -80.6863   21.7584  -73.8089 H         1 UNK         0.0822 
    119 H119      -81.0050   23.7600  -72.2965 H         1 UNK         0.0807 
    120 H120      -79.4299   24.3806  -72.7702 H         1 UNK         0.0807 
    121 H121      -79.5560   22.8895  -71.8426 H         1 UNK         0.0807 
    122 H122      -80.0657   23.8305  -75.6793 H         1 UNK         0.2946 
    123 H123      -82.3053   24.2035  -77.1813 H         1 UNK         0.1144 
    124 H124      -84.0023   26.0401  -76.9507 H         1 UNK         0.0793 
    125 H125      -83.9531   25.8616  -75.1975 H         1 UNK         0.0793 
    126 H126      -84.5358   24.5442  -76.2015 H         1 UNK         0.0793 
    127 H127      -80.8315   25.8800  -77.2072 H         1 UNK         0.2896 
@<TRIPOS>BOND
     1    1    2 1    
     2    1   67 1    
     3    1   68 1    
     4    1   69 1    
     5    2    3 2    
     6    2    4 am   BACKBONE|DICT|INTERRES
     7    4    5 1    
     8    4   70 1    
     9    5    6 1    
    10    5   65 1    
    11    5   71 1    
    12    6    7 1    
    13    6   72 1    
    14    6   73 1    
    15    7    8 1    
    16    8    9 1    
    17    8   74 1    
    18    8   75 1    
    19    9   10 ar   
    20    9   14 ar   
    21   10   11 ar   
    22   10   76 1    
    23   11   12 ar   
    24   11   48 1    
    25   12   13 ar   
    26   12   77 1    
    27   13   14 ar   
    28   13   15 1    
    29   14   78 1    
    30   15   16 1    
    31   15   79 1    
    32   15   80 1    
    33   16   17 1    
    34   17   18 1    
    35   17   81 1    
    36   17   82 1    
    37   18   19 1    
    38   18   22 1    
    39   18   83 1    
    40   19   20 am   BACKBONE|DICT|INTERRES
    41   19   21 2    
    42   20   84 1    
    43   20   85 1    
    44   22   23 am   BACKBONE|DICT|INTERRES
    45   22   86 1    
    46   23   24 2    
    47   23   25 1    
    48   25   26 1    
    49   25   27 1    
    50   25   87 1    
    51   26   88 1    
    52   26   89 1    
    53   26   90 1    
    54   27   28 am   BACKBONE|DICT|INTERRES
    55   27   91 1    
    56   28   29 2    
    57   28   30 1    
    58   30   31 1    
    59   30   32 1    
    60   30   92 1    
    61   31   93 1    
    62   31   94 1    
    63   31   95 1    
    64   32   33 am   BACKBONE|DICT|INTERRES
    65   32   96 1    
    66   33   34 2    
    67   33   35 1    
    68   35   36 1    
    69   35   37 1    
    70   35   97 1    
    71   36   98 1    
    72   36   99 1    
    73   36  100 1    
    74   37   38 am   BACKBONE|DICT|INTERRES
    75   37  101 1    
    76   38   39 2    
    77   38   40 1    
    78   40   41 1    
    79   40   42 1    
    80   40  102 1    
    81   41  103 1    
    82   41  104 1    
    83   41  105 1    
    84   42   43 am   BACKBONE|DICT|INTERRES
    85   42  106 1    
    86   43   44 2    
    87   43   45 1    
    88   45   46 1    
    89   45   49 1    
    90   45  107 1    
    91   46   47 1    
    92   46  108 1    
    93   46  109 1    
    94   47   48 1    
    95   48  110 1    
    96   48  111 1    
    97   49   50 am   BACKBONE|DICT|INTERRES
    98   49  112 1    
    99   50   51 2    
   100   50   52 1    
   101   52   53 1    
   102   52   54 1    
   103   52  113 1    
   104   53  114 1    
   105   53  115 1    
   106   53  116 1    
   107   54   55 am   BACKBONE|DICT|INTERRES
   108   54  117 1    
   109   55   56 2    
   110   55   57 1    
   111   57   58 1    
   112   57   59 1    
   113   57  118 1    
   114   58  119 1    
   115   58  120 1    
   116   58  121 1    
   117   59   60 am   BACKBONE|DICT|INTERRES
   118   59  122 1    
   119   60   61 2    
   120   60   62 1    
   121   62   63 1    
   122   62   64 1    
   123   62  123 1    
   124   63  124 1    
   125   63  125 1    
   126   63  126 1    
   127   64   65 am   BACKBONE|DICT|INTERRES
   128   64  127 1    
   129   65   66 2    
@<TRIPOS>SUBSTRUCTURE
     1 UNK         1 GROUP             0       ****    0 ROOT    
