@<TRIPOS>MOLECULE
3R135
127   129    1
SMALL
USER_CHARGES


@<TRIPOS>ATOM
      1 CA        -82.6440   25.1321  -69.5523 C.3       0 UNK        -0.1998 
      2 C         -83.1196   25.7695  -70.8491 C.2       0 UNK         0.4909 
      3 O         -84.2229   25.4739  -71.3089 O.2       0 UNK        -0.5240 
      4 N         -82.2943   26.6415  -71.4430 N.am      1 UNK        -0.4739 
      5 CA        -82.5898   27.3594  -72.6935 C.3       1 UNK         0.0864 
      6 C6        -81.6945   28.6101  -72.8743 C.3       11 UNK        -0.0881 
      7 S7        -81.7548   29.7308  -71.4335 S.3       11 UNK        -0.2682 
      8 C8        -80.4264   30.9196  -71.8293 C.3       11 UNK         0.0289 
      9 C9        -79.0585   30.2846  -72.0761 C.ar      11 UNK        -0.0687 
     10 C10       -78.6064   29.1954  -71.3225 C.ar      11 UNK        -0.0823 
     11 C11       -77.3627   28.6083  -71.5766 C.ar      11 UNK        -0.0830 
     12 C12       -76.5440   29.1539  -72.5756 C.ar      11 UNK        -0.1021 
     13 C13       -76.9708   30.2617  -73.3165 C.ar      11 UNK        -0.0753 
     14 C14       -78.2299   30.8129  -73.0684 C.ar      11 UNK        -0.0933 
     15 C15       -76.0890   30.8691  -74.3971 C.3       11 UNK         0.0166 
     16 S16       -75.2172   32.3558  -73.8097 S.3       11 UNK        -0.2615 
     17 C17       -73.7808   31.6163  -72.9603 C.3       11 UNK        -0.0865 
     18 CA        -72.5105   31.5982  -73.8638 C.3       10 UNK         0.0862 
     19 C         -71.6307   32.8679  -73.7087 C.2       10 UNK         0.5551 
     20 N         -72.1868   34.0426  -73.9670 N.am      10 UNK        -0.7319 
     21 O         -70.4541   32.8011  -73.3541 O.2       10 UNK        -0.5018 
     22 N         -71.7156   30.3787  -73.6808 N.am      10 UNK        -0.4509 
     23 C         -72.0399   29.1714  -74.1512 C.2       10 UNK         0.4899 
     24 O         -73.0668   28.9414  -74.7879 O.2       10 UNK        -0.4839 
     25 CA        -71.0590   28.0353  -73.8380 C.3       9 UNK         0.0222 
     26 CB        -71.0574   27.7053  -72.3323 C.3       9 UNK        -0.1966 
     27 N         -71.4214   26.8360  -74.5923 N.am      9 UNK        -0.4218 
     28 C         -70.5677   25.8800  -74.9770 C.2       9 UNK         0.5020 
     29 O         -69.3505   25.9394  -74.7934 O.2       9 UNK        -0.5274 
     30 CA        -71.1524   24.6330  -75.6569 C.3       8 UNK         0.0270 
     31 CB        -71.6531   23.6372  -74.5968 C.3       8 UNK        -0.1976 
     32 N         -72.2504   24.9475  -76.5731 N.am      8 UNK        -0.4313 
     33 C         -72.1419   24.9871  -77.9082 C.2       8 UNK         0.5041 
     34 O         -71.0774   24.8345  -78.5097 O.2       8 UNK        -0.5577 
     35 CA        -73.4290   25.1934  -78.7313 C.3       7 UNK         0.0284 
     36 CB        -73.9270   23.8462  -79.2805 C.3       7 UNK        -0.1958 
     37 N         -74.5152   25.8240  -77.9819 N.am      7 UNK        -0.4454 
     38 C         -74.5503   27.1139  -77.6274 C.2       7 UNK         0.5089 
     39 O         -73.7092   27.9412  -77.9789 O.2       7 UNK        -0.5125 
     40 CA        -75.7063   27.5467  -76.7056 C.3       6 UNK         0.0408 
     41 CB        -76.9033   28.0451  -77.5288 C.3       6 UNK        -0.1791 
     42 N         -76.1533   26.5116  -75.7639 N.am      6 UNK        -0.4762 
     43 C         -75.3732   25.9156  -74.8480 C.2       6 UNK         0.5007 
     44 O         -74.1657   26.1185  -74.7369 O.2       6 UNK        -0.5032 
     45 CA        -76.0367   24.8592  -73.9495 C.3       5 UNK         0.0783 
     46 C46       -76.8906   25.4998  -72.8272 C.3       11 UNK        -0.0857 
     47 S47       -75.8217   26.2207  -71.5328 S.3       11 UNK        -0.2512 
     48 C48       -76.9324   27.4172  -70.7191 C.3       11 UNK         0.0225 
     49 N         -76.7803   23.9015  -74.7707 N.am      5 UNK        -0.4615 
     50 C         -76.1831   22.9426  -75.4982 C.2       4 UNK         0.5053 
     51 O         -74.9762   22.7070  -75.4532 O.2       4 UNK        -0.5105 
     52 CA        -77.0585   22.1199  -76.4611 C.3       4 UNK         0.0263 
     53 CB        -77.5724   20.8494  -75.7656 C.3       4 UNK        -0.1981 
     54 N         -78.1941   22.8674  -77.0017 N.am      4 UNK        -0.4224 
     55 C         -78.1057   23.9769  -77.7499 C.2       3 UNK         0.4895 
     56 O         -77.0429   24.4491  -78.1500 O.2       3 UNK        -0.5091 
     57 CA        -79.4213   24.7154  -78.0576 C.3       3 UNK         0.0250 
     58 CB        -79.9348   24.3372  -79.4556 C.3       3 UNK        -0.1996 
     59 N         -80.4777   24.4771  -77.0657 N.am      3 UNK        -0.4254 
     60 C         -80.3957   24.7994  -75.7670 C.2       2 UNK         0.5004 
     61 O         -79.4116   25.3400  -75.2523 O.2       2 UNK        -0.5226 
     62 CA        -81.5670   24.3484  -74.8840 C.3       2 UNK         0.0269 
     63 CB        -81.2634   22.9720  -74.2685 C.3       2 UNK        -0.1926 
     64 N         -81.8087   25.3032  -73.8059 N.am      2 UNK        -0.4687 
     65 C         -82.4871   26.4511  -73.9388 C.2       1 UNK         0.5165 
     66 O         -83.0225   26.8047  -74.9908 O.2       1 UNK        -0.5079 
     67 H67       -82.5958   24.0490  -69.6622 H         1 UNK         0.0900 
     68 H68       -83.3387   25.3623  -68.7450 H         1 UNK         0.0900 
     69 H69       -81.6561   25.4881  -69.2608 H         1 UNK         0.0900 
     70 H70       -81.4124   26.8711  -71.0079 H         1 UNK         0.2959 
     71 H71       -83.6270   27.6988  -72.6435 H         1 UNK         0.1079 
     72 H72       -82.0012   29.1766  -73.7559 H         1 UNK         0.0837 
     73 H73       -80.6617   28.3055  -73.0525 H         1 UNK         0.0837 
     74 H74       -80.7391   31.4960  -72.7014 H         1 UNK         0.0685 
     75 H75       -80.3365   31.6292  -71.0061 H         1 UNK         0.0685 
     76 H76       -79.2330   28.7951  -70.5376 H         1 UNK         0.1434 
     77 H77       -75.5723   28.7240  -72.7774 H         1 UNK         0.1329 
     78 H78       -78.5594   31.6650  -73.6474 H         1 UNK         0.1335 
     79 H79       -76.7014   31.1358  -75.2598 H         1 UNK         0.0680 
     80 H80       -75.3614   30.1441  -74.7552 H         1 UNK         0.0680 
     81 H81       -74.0511   30.6080  -72.6468 H         1 UNK         0.1032 
     82 H82       -73.6002   32.1574  -72.0296 H         1 UNK         0.1032 
     83 H83       -72.8168   31.5915  -74.9122 H         1 UNK         0.0461 
     84 H84       -71.6373   34.8824  -73.8730 H         1 UNK         0.3453 
     85 H85       -73.1567   34.1000  -74.2396 H         1 UNK         0.3453 
     86 H86       -70.8347   30.5214  -73.2036 H         1 UNK         0.2984 
     87 H87       -70.0637   28.3681  -74.1400 H         1 UNK         0.0554 
     88 H88       -70.3464   26.9124  -72.0998 H         1 UNK         0.0847 
     89 H89       -72.0425   27.3793  -71.9948 H         1 UNK         0.0847 
     90 H90       -70.7764   28.5719  -71.7330 H         1 UNK         0.0847 
     91 H91       -72.4193   26.7355  -74.7807 H         1 UNK         0.3141 
     92 H92       -70.3409   24.1476  -76.2034 H         1 UNK         0.0743 
     93 H93       -72.4669   24.0524  -74.0009 H         1 UNK         0.0784 
     94 H94       -72.0159   22.7184  -75.0582 H         1 UNK         0.0784 
     95 H95       -70.8521   23.3617  -73.9095 H         1 UNK         0.0784 
     96 H96       -73.1476   25.1527  -76.1453 H         1 UNK         0.3213 
     97 H97       -73.1779   25.8370  -79.5773 H         1 UNK         0.0855 
     98 H98       -74.2121   23.1658  -78.4766 H         1 UNK         0.0814 
     99 H99       -73.1532   23.3521  -79.8695 H         1 UNK         0.0814 
    100 H100      -74.7933   23.9781  -79.9292 H         1 UNK         0.0814 
    101 H101      -75.3137   25.2402  -77.7462 H         1 UNK         0.3105 
    102 H102      -75.3390   28.3795  -76.1084 H         1 UNK         0.0547 
    103 H103      -76.6105   28.8740  -78.1745 H         1 UNK         0.0837 
    104 H104      -77.3038   27.2609  -78.1710 H         1 UNK         0.0837 
    105 H105      -77.7082   28.4039  -76.8870 H         1 UNK         0.0837 
    106 H106      -77.1312   26.2553  -75.7982 H         1 UNK         0.3020 
    107 H107      -75.2293   24.3039  -73.4646 H         1 UNK         0.1245 
    108 H108      -77.5168   24.7426  -72.3530 H         1 UNK         0.0781 
    109 H109      -77.5731   26.2544  -73.2240 H         1 UNK         0.0781 
    110 H110      -76.4283   27.8024  -69.8320 H         1 UNK         0.0836 
    111 H111      -77.8085   26.8735  -70.3617 H         1 UNK         0.0836 
    112 H112      -77.7694   24.0848  -74.8943 H         1 UNK         0.3022 
    113 H113      -76.4288   21.8224  -77.3024 H         1 UNK         0.0747 
    114 H114      -78.1215   20.2112  -76.4583 H         1 UNK         0.0793 
    115 H115      -76.7437   20.2586  -75.3723 H         1 UNK         0.0793 
    116 H116      -78.2313   21.0841  -74.9285 H         1 UNK         0.0793 
    117 H117      -79.1137   22.5480  -76.7374 H         1 UNK         0.3047 
    118 H118      -79.2023   25.7846  -78.0510 H         1 UNK         0.0822 
    119 H119      -80.8151   24.9202  -79.7270 H         1 UNK         0.0807 
    120 H120      -80.1973   23.2804  -79.5188 H         1 UNK         0.0807 
    121 H121      -79.1752   24.5301  -80.2149 H         1 UNK         0.0807 
    122 H122      -81.3143   24.0220  -77.4035 H         1 UNK         0.2946 
    123 H123      -82.4695   24.2706  -75.4952 H         1 UNK         0.1144 
    124 H124      -81.1203   22.2171  -75.0427 H         1 UNK         0.0793 
    125 H125      -82.0843   22.6316  -73.6369 H         1 UNK         0.0793 
    126 H126      -80.3584   22.9908  -73.6592 H         1 UNK         0.0793 
    127 H127      -81.3709   25.1107  -72.9174 H         1 UNK         0.2896 
@<TRIPOS>BOND
     1    1    2 1    
     2    1   67 1    
     3    1   68 1    
     4    1   69 1    
     5    2    3 2    
     6    2    4 am   BACKBONE|DICT|INTERRES
     7    4    5 1    
     8    4   70 1    
     9    5    6 1    
    10    5   65 1    
    11    5   71 1    
    12    6    7 1    
    13    6   72 1    
    14    6   73 1    
    15    7    8 1    
    16    8    9 1    
    17    8   74 1    
    18    8   75 1    
    19    9   10 ar   
    20    9   14 ar   
    21   10   11 ar   
    22   10   76 1    
    23   11   12 ar   
    24   11   48 1    
    25   12   13 ar   
    26   12   77 1    
    27   13   14 ar   
    28   13   15 1    
    29   14   78 1    
    30   15   16 1    
    31   15   79 1    
    32   15   80 1    
    33   16   17 1    
    34   17   18 1    
    35   17   81 1    
    36   17   82 1    
    37   18   19 1    
    38   18   22 1    
    39   18   83 1    
    40   19   20 am   BACKBONE|DICT|INTERRES
    41   19   21 2    
    42   20   84 1    
    43   20   85 1    
    44   22   23 am   BACKBONE|DICT|INTERRES
    45   22   86 1    
    46   23   24 2    
    47   23   25 1    
    48   25   26 1    
    49   25   27 1    
    50   25   87 1    
    51   26   88 1    
    52   26   89 1    
    53   26   90 1    
    54   27   28 am   BACKBONE|DICT|INTERRES
    55   27   91 1    
    56   28   29 2    
    57   28   30 1    
    58   30   31 1    
    59   30   32 1    
    60   30   92 1    
    61   31   93 1    
    62   31   94 1    
    63   31   95 1    
    64   32   33 am   BACKBONE|DICT|INTERRES
    65   32   96 1    
    66   33   34 2    
    67   33   35 1    
    68   35   36 1    
    69   35   37 1    
    70   35   97 1    
    71   36   98 1    
    72   36   99 1    
    73   36  100 1    
    74   37   38 am   BACKBONE|DICT|INTERRES
    75   37  101 1    
    76   38   39 2    
    77   38   40 1    
    78   40   41 1    
    79   40   42 1    
    80   40  102 1    
    81   41  103 1    
    82   41  104 1    
    83   41  105 1    
    84   42   43 am   BACKBONE|DICT|INTERRES
    85   42  106 1    
    86   43   44 2    
    87   43   45 1    
    88   45   46 1    
    89   45   49 1    
    90   45  107 1    
    91   46   47 1    
    92   46  108 1    
    93   46  109 1    
    94   47   48 1    
    95   48  110 1    
    96   48  111 1    
    97   49   50 am   BACKBONE|DICT|INTERRES
    98   49  112 1    
    99   50   51 2    
   100   50   52 1    
   101   52   53 1    
   102   52   54 1    
   103   52  113 1    
   104   53  114 1    
   105   53  115 1    
   106   53  116 1    
   107   54   55 am   BACKBONE|DICT|INTERRES
   108   54  117 1    
   109   55   56 2    
   110   55   57 1    
   111   57   58 1    
   112   57   59 1    
   113   57  118 1    
   114   58  119 1    
   115   58  120 1    
   116   58  121 1    
   117   59   60 am   BACKBONE|DICT|INTERRES
   118   59  122 1    
   119   60   61 2    
   120   60   62 1    
   121   62   63 1    
   122   62   64 1    
   123   62  123 1    
   124   63  124 1    
   125   63  125 1    
   126   63  126 1    
   127   64   65 am   BACKBONE|DICT|INTERRES
   128   64  127 1    
   129   65   66 2    
@<TRIPOS>SUBSTRUCTURE
     1 UNK         1 GROUP             0       ****    0 ROOT    
