@<TRIPOS>MOLECULE
3R135
127   129    1
SMALL
USER_CHARGES


@<TRIPOS>ATOM
      1 CA        -85.9759   29.4108  -74.8543 C.3       0 UNK        -0.1998 
      2 C         -84.5617   28.8858  -75.0531 C.2       0 UNK         0.4909 
      3 O         -84.0640   28.8781  -76.1800 O.2       0 UNK        -0.5240 
      4 N         -83.9083   28.4569  -73.9665 N.am      1 UNK        -0.4739 
      5 CA        -82.5599   27.8783  -73.9773 C.3       1 UNK         0.0864 
      6 C6        -81.8919   27.9246  -72.5801 C.3       11 UNK        -0.0881 
      7 S7        -81.8334   29.5911  -71.8314 S.3       11 UNK        -0.2682 
      8 C8        -80.2474   30.2481  -72.4563 C.3       11 UNK         0.0289 
      9 C9        -79.0053   29.8828  -71.6390 C.ar      11 UNK        -0.0687 
     10 C10       -78.8768   28.6593  -70.9696 C.ar      11 UNK        -0.0823 
     11 C11       -77.6847   28.3139  -70.3293 C.ar      11 UNK        -0.0830 
     12 C12       -76.6309   29.2288  -70.2923 C.ar      11 UNK        -0.1021 
     13 C13       -76.7370   30.4503  -70.9614 C.ar      11 UNK        -0.0753 
     14 C14       -77.9240   30.7711  -71.6277 C.ar      11 UNK        -0.0933 
     15 C15       -75.5492   31.3975  -71.0189 C.3       11 UNK         0.0166 
     16 S16       -74.4994   31.0392  -72.4649 S.3       11 UNK        -0.2615 
     17 C17       -73.6682   29.4975  -71.9437 C.3       11 UNK        -0.0865 
     18 CA        -72.2554   29.3539  -72.5669 C.3       10 UNK         0.0862 
     19 C         -71.4183   28.2326  -71.8802 C.2       10 UNK         0.5551 
     20 N         -70.6861   27.3956  -72.6059 N.am      10 UNK        -0.7319 
     21 O         -71.4160   28.1274  -70.6562 O.2       10 UNK        -0.5018 
     22 N         -72.3311   29.2124  -74.0295 N.am      10 UNK        -0.4509 
     23 C         -71.4854   29.7743  -74.9002 C.2       10 UNK         0.4899 
     24 O         -70.5862   30.5546  -74.5814 O.2       10 UNK        -0.4839 
     25 CA        -71.6670   29.3618  -76.3745 C.3       9 UNK         0.0222 
     26 CB        -70.5282   29.8635  -77.2872 C.3       9 UNK        -0.1966 
     27 N         -71.8569   27.9149  -76.5374 N.am      9 UNK        -0.4218 
     28 C         -71.0363   26.9314  -76.1297 C.2       9 UNK         0.5020 
     29 O         -69.9699   27.1312  -75.5468 O.2       9 UNK        -0.5274 
     30 CA        -71.4802   25.4740  -76.3654 C.3       8 UNK         0.0270 
     31 CB        -71.7410   24.7679  -75.0244 C.3       8 UNK        -0.1976 
     32 N         -72.6783   25.3626  -77.1973 N.am      8 UNK        -0.4313 
     33 C         -72.7087   25.5022  -78.5293 C.2       8 UNK         0.5041 
     34 O         -71.7044   25.6331  -79.2295 O.2       8 UNK        -0.5577 
     35 CA        -74.0994   25.5458  -79.1829 C.3       7 UNK         0.0284 
     36 CB        -74.4662   24.1774  -79.7806 C.3       7 UNK        -0.1958 
     37 N         -75.1389   25.9849  -78.2416 N.am      7 UNK        -0.4454 
     38 C         -75.3033   27.2631  -77.8686 C.2       7 UNK         0.5089 
     39 O         -74.5946   28.1837  -78.2757 O.2       7 UNK        -0.5125 
     40 CA        -76.4100   27.5712  -76.8484 C.3       6 UNK         0.0408 
     41 CB        -77.7925   27.5692  -77.5190 C.3       6 UNK        -0.1791 
     42 N         -76.4158   26.6764  -75.6889 N.am      6 UNK        -0.4762 
     43 C         -75.4571   26.6497  -74.7497 C.2       6 UNK         0.5007 
     44 O         -74.4100   27.2948  -74.8273 O.2       6 UNK        -0.5032 
     45 CA        -75.7017   25.7732  -73.5080 C.3       5 UNK         0.0783 
     46 C46       -76.6243   26.4942  -72.4966 C.3       11 UNK        -0.0857 
     47 S47       -76.3513   25.9010  -70.7875 S.3       11 UNK        -0.2512 
     48 C48       -77.5022   26.9074  -69.7773 C.3       11 UNK         0.0225 
     49 N         -76.2425   24.4748  -73.9079 N.am      5 UNK        -0.4615 
     50 C         -75.5420   23.3343  -73.9225 C.2       4 UNK         0.5053 
     51 O         -74.3892   23.2299  -73.5047 O.2       4 UNK        -0.5105 
     52 CA        -76.2310   22.0916  -74.5189 C.3       4 UNK         0.0263 
     53 CB        -76.8547   21.2403  -73.4011 C.3       4 UNK        -0.1981 
     54 N         -77.2569   22.3895  -75.5239 N.am      4 UNK        -0.4224 
     55 C         -77.0554   23.0687  -76.6624 C.2       3 UNK         0.4895 
     56 O         -75.9692   23.5314  -77.0054 O.2       3 UNK        -0.5091 
     57 CA        -78.2867   23.3369  -77.5423 C.3       3 UNK         0.0250 
     58 CB        -78.4754   22.1998  -78.5582 C.3       3 UNK        -0.1996 
     59 N         -79.5330   23.5424  -76.7937 N.am      3 UNK        -0.4254 
     60 C         -79.7275   24.4715  -75.8473 C.2       2 UNK         0.5004 
     61 O         -78.8482   25.2336  -75.4299 O.2       2 UNK        -0.5226 
     62 CA        -81.1254   24.5289  -75.2290 C.3       2 UNK         0.0269 
     63 CB        -81.2251   23.5518  -74.0417 C.3       2 UNK        -0.1926 
     64 N         -81.3691   25.8963  -74.7809 N.am      2 UNK        -0.4687 
     65 C         -82.5663   26.4259  -74.5061 C.2       1 UNK         0.5165 
     66 O         -83.6253   25.7998  -74.6109 O.2       1 UNK        -0.5079 
     67 H67       -86.2804   29.3756  -73.8084 H         1 UNK         0.0900 
     68 H68       -86.0436   30.4445  -75.1923 H         1 UNK         0.0900 
     69 H69       -86.6815   28.8153  -75.4331 H         1 UNK         0.0900 
     70 H70       -84.3665   28.4765  -73.0668 H         1 UNK         0.2959 
     71 H71       -81.9495   28.4679  -74.6654 H         1 UNK         0.1079 
     72 H72       -82.4199   27.2700  -71.8836 H         1 UNK         0.0837 
     73 H73       -80.8793   27.5301  -72.6543 H         1 UNK         0.0837 
     74 H74       -80.3452   31.3342  -72.4928 H         1 UNK         0.0685 
     75 H75       -80.1009   29.9233  -73.4871 H         1 UNK         0.0685 
     76 H76       -79.6817   27.9434  -70.9697 H         1 UNK         0.1434 
     77 H77       -75.7058   28.9570  -69.8033 H         1 UNK         0.1329 
     78 H78       -77.9929   31.7070  -72.1656 H         1 UNK         0.1335 
     79 H79       -75.9006   32.4282  -71.0862 H         1 UNK         0.0680 
     80 H80       -74.9610   31.3364  -70.1020 H         1 UNK         0.0680 
     81 H81       -74.2940   28.6443  -72.2077 H         1 UNK         0.1032 
     82 H82       -73.6008   29.5023  -70.8547 H         1 UNK         0.1032 
     83 H83       -71.7173   30.2744  -72.3336 H         1 UNK         0.0461 
     84 H84       -70.1475   26.6870  -72.1345 H         1 UNK         0.3453 
     85 H85       -70.6124   27.4959  -73.6107 H         1 UNK         0.3453 
     86 H86       -73.0335   28.5635  -74.3757 H         1 UNK         0.2984 
     87 H87       -72.5928   29.8304  -76.7114 H         1 UNK         0.0554 
     88 H88       -70.4514   30.9510  -77.2552 H         1 UNK         0.0847 
     89 H89       -70.7002   29.5821  -78.3260 H         1 UNK         0.0847 
     90 H90       -69.5607   29.4600  -76.9862 H         1 UNK         0.0847 
     91 H91       -72.7309   27.6472  -76.9713 H         1 UNK         0.3141 
     92 H92       -70.6583   24.9602  -76.8684 H         1 UNK         0.0743 
     93 H93       -70.8436   24.7607  -74.4045 H         1 UNK         0.0784 
     94 H94       -72.5253   25.2631  -74.4512 H         1 UNK         0.0784 
     95 H95       -72.0385   23.7293  -75.1710 H         1 UNK         0.0784 
     96 H96       -73.5584   25.2453  -76.7153 H         1 UNK         0.3213 
     97 H97       -74.0552   26.2659  -80.0034 H         1 UNK         0.0855 
     98 H98       -74.4051   23.3788  -79.0413 H         1 UNK         0.0814 
     99 H99       -73.7827   23.9160  -80.5893 H         1 UNK         0.0814 
    100 H100      -75.4744   24.1782  -80.1951 H         1 UNK         0.0814 
    101 H101      -75.6926   25.2532  -77.8036 H         1 UNK         0.3105 
    102 H102      -76.2316   28.5818  -76.4740 H         1 UNK         0.0547 
    103 H103      -78.5715   27.8761  -76.8210 H         1 UNK         0.0837 
    104 H104      -78.0582   26.5849  -77.9022 H         1 UNK         0.0837 
    105 H105      -77.8194   28.2640  -78.3595 H         1 UNK         0.0837 
    106 H106      -77.2607   26.1243  -75.5547 H         1 UNK         0.3020 
    107 H107      -74.7223   25.6456  -73.0401 H         1 UNK         0.1245 
    108 H108      -77.6763   26.3753  -72.7633 H         1 UNK         0.0781 
    109 H109      -76.4271   27.5669  -72.5120 H         1 UNK         0.0781 
    110 H110      -77.1266   26.9611  -68.7546 H         1 UNK         0.0836 
    111 H111      -78.4604   26.3886  -69.7218 H         1 UNK         0.0836 
    112 H112      -77.1799   24.4756  -74.2904 H         1 UNK         0.3022 
    113 H113      -75.4564   21.4998  -75.0110 H         1 UNK         0.0747 
    114 H114      -77.2597   20.3061  -73.7906 H         1 UNK         0.0793 
    115 H115      -76.1097   20.9785  -72.6481 H         1 UNK         0.0793 
    116 H116      -77.6599   21.7713  -72.8913 H         1 UNK         0.0793 
    117 H117      -78.1910   22.0608  -75.3285 H         1 UNK         0.3047 
    118 H118      -78.0890   24.2531  -78.1005 H         1 UNK         0.0822 
    119 H119      -79.2743   22.4260  -79.2646 H         1 UNK         0.0807 
    120 H120      -78.7158   21.2548  -78.0692 H         1 UNK         0.0807 
    121 H121      -77.5665   22.0430  -79.1416 H         1 UNK         0.0807 
    122 H122      -80.3090   22.9497  -77.0534 H         1 UNK         0.2946 
    123 H123      -81.8627   24.2661  -75.9913 H         1 UNK         0.1144 
    124 H124      -80.5083   23.7985  -73.2571 H         1 UNK         0.0793 
    125 H125      -81.0258   22.5268  -74.3569 H         1 UNK         0.0793 
    126 H126      -82.2207   23.5613  -73.5981 H         1 UNK         0.0793 
    127 H127      -80.5276   26.4546  -74.7041 H         1 UNK         0.2896 
@<TRIPOS>BOND
     1    1    2 1    
     2    1   67 1    
     3    1   68 1    
     4    1   69 1    
     5    2    3 2    
     6    2    4 am   BACKBONE|DICT|INTERRES
     7    4    5 1    
     8    4   70 1    
     9    5    6 1    
    10    5   65 1    
    11    5   71 1    
    12    6    7 1    
    13    6   72 1    
    14    6   73 1    
    15    7    8 1    
    16    8    9 1    
    17    8   74 1    
    18    8   75 1    
    19    9   10 ar   
    20    9   14 ar   
    21   10   11 ar   
    22   10   76 1    
    23   11   12 ar   
    24   11   48 1    
    25   12   13 ar   
    26   12   77 1    
    27   13   14 ar   
    28   13   15 1    
    29   14   78 1    
    30   15   16 1    
    31   15   79 1    
    32   15   80 1    
    33   16   17 1    
    34   17   18 1    
    35   17   81 1    
    36   17   82 1    
    37   18   19 1    
    38   18   22 1    
    39   18   83 1    
    40   19   20 am   BACKBONE|DICT|INTERRES
    41   19   21 2    
    42   20   84 1    
    43   20   85 1    
    44   22   23 am   BACKBONE|DICT|INTERRES
    45   22   86 1    
    46   23   24 2    
    47   23   25 1    
    48   25   26 1    
    49   25   27 1    
    50   25   87 1    
    51   26   88 1    
    52   26   89 1    
    53   26   90 1    
    54   27   28 am   BACKBONE|DICT|INTERRES
    55   27   91 1    
    56   28   29 2    
    57   28   30 1    
    58   30   31 1    
    59   30   32 1    
    60   30   92 1    
    61   31   93 1    
    62   31   94 1    
    63   31   95 1    
    64   32   33 am   BACKBONE|DICT|INTERRES
    65   32   96 1    
    66   33   34 2    
    67   33   35 1    
    68   35   36 1    
    69   35   37 1    
    70   35   97 1    
    71   36   98 1    
    72   36   99 1    
    73   36  100 1    
    74   37   38 am   BACKBONE|DICT|INTERRES
    75   37  101 1    
    76   38   39 2    
    77   38   40 1    
    78   40   41 1    
    79   40   42 1    
    80   40  102 1    
    81   41  103 1    
    82   41  104 1    
    83   41  105 1    
    84   42   43 am   BACKBONE|DICT|INTERRES
    85   42  106 1    
    86   43   44 2    
    87   43   45 1    
    88   45   46 1    
    89   45   49 1    
    90   45  107 1    
    91   46   47 1    
    92   46  108 1    
    93   46  109 1    
    94   47   48 1    
    95   48  110 1    
    96   48  111 1    
    97   49   50 am   BACKBONE|DICT|INTERRES
    98   49  112 1    
    99   50   51 2    
   100   50   52 1    
   101   52   53 1    
   102   52   54 1    
   103   52  113 1    
   104   53  114 1    
   105   53  115 1    
   106   53  116 1    
   107   54   55 am   BACKBONE|DICT|INTERRES
   108   54  117 1    
   109   55   56 2    
   110   55   57 1    
   111   57   58 1    
   112   57   59 1    
   113   57  118 1    
   114   58  119 1    
   115   58  120 1    
   116   58  121 1    
   117   59   60 am   BACKBONE|DICT|INTERRES
   118   59  122 1    
   119   60   61 2    
   120   60   62 1    
   121   62   63 1    
   122   62   64 1    
   123   62  123 1    
   124   63  124 1    
   125   63  125 1    
   126   63  126 1    
   127   64   65 am   BACKBONE|DICT|INTERRES
   128   64  127 1    
   129   65   66 2    
@<TRIPOS>SUBSTRUCTURE
     1 UNK         1 GROUP             0       ****    0 ROOT    
