@<TRIPOS>MOLECULE
3R135
127   129    1
SMALL
USER_CHARGES


@<TRIPOS>ATOM
      1 CA        -82.4971   26.9530  -71.6913 C.3       0 UNK        -0.1998 
      2 C         -82.3971   27.6766  -73.0255 C.2       0 UNK         0.4909 
      3 O         -83.4221   27.9817  -73.6353 O.2       0 UNK        -0.5240 
      4 N         -81.1678   27.9494  -73.4839 N.am      1 UNK        -0.4739 
      5 CA        -80.8819   28.6066  -74.7679 C.3       1 UNK         0.0864 
      6 C6        -79.4477   29.1974  -74.8200 C.3       11 UNK        -0.0881 
      7 S7        -79.2472   30.5945  -73.6584 S.3       11 UNK        -0.2682 
      8 C8        -77.4532   30.5565  -73.2947 C.3       11 UNK         0.0289 
      9 C9        -77.0186   29.6311  -72.1543 C.ar      11 UNK        -0.0687 
     10 C10       -77.8186   28.5853  -71.6846 C.ar      11 UNK        -0.0823 
     11 C11       -77.3563   27.7058  -70.7026 C.ar      11 UNK        -0.0830 
     12 C12       -76.0926   27.9072  -70.1414 C.ar      11 UNK        -0.1021 
     13 C13       -75.2956   28.9760  -70.5625 C.ar      11 UNK        -0.0753 
     14 C14       -75.7613   29.8233  -71.5735 C.ar      11 UNK        -0.0933 
     15 C15       -73.9395   29.2230  -69.9178 C.3       11 UNK         0.0166 
     16 S16       -72.5927   28.5275  -70.9233 S.3       11 UNK        -0.2615 
     17 C17       -71.5442   29.9990  -71.2082 C.3       11 UNK        -0.0865 
     18 CA        -72.1007   30.9647  -72.2897 C.3       10 UNK         0.0862 
     19 C         -71.1619   32.1879  -72.4963 C.2       10 UNK         0.5551 
     20 N         -70.6612   32.4484  -73.6979 N.am      10 UNK        -0.7319 
     21 O         -70.8905   32.9197  -71.5475 O.2       10 UNK        -0.5018 
     22 N         -72.4449   30.2478  -73.5253 N.am      10 UNK        -0.4509 
     23 C         -73.4118   30.5773  -74.3851 C.2       10 UNK         0.4899 
     24 O         -74.1200   31.5769  -74.2632 O.2       10 UNK        -0.4839 
     25 CA        -73.6585   29.6311  -75.5759 C.3       9 UNK         0.0222 
     26 CB        -72.9364   30.1384  -76.8388 C.3       9 UNK        -0.1966 
     27 N         -73.3664   28.2092  -75.3301 N.am      9 UNK        -0.4218 
     28 C         -72.1862   27.6108  -75.1012 C.2       9 UNK         0.5020 
     29 O         -71.1179   28.2125  -74.9832 O.2       9 UNK        -0.5274 
     30 CA        -72.1975   26.0787  -74.9744 C.3       8 UNK         0.0270 
     31 CB        -72.6426   25.6559  -73.5649 C.3       8 UNK        -0.1976 
     32 N         -73.0483   25.4390  -75.9804 N.am      8 UNK        -0.4313 
     33 C         -72.8077   25.4474  -77.3004 C.2       8 UNK         0.5041 
     34 O         -71.7845   25.9067  -77.8098 O.2       8 UNK        -0.5577 
     35 CA        -73.9038   24.8681  -78.2122 C.3       7 UNK         0.0284 
     36 CB        -73.8009   23.3369  -78.2927 C.3       7 UNK        -0.1958 
     37 N         -75.2511   25.2592  -77.7886 N.am      7 UNK        -0.4454 
     38 C         -75.7121   26.5188  -77.8035 C.2       7 UNK         0.5089 
     39 O         -75.0815   27.4779  -78.2467 O.2       7 UNK        -0.5125 
     40 CA        -77.1077   26.7554  -77.2053 C.3       6 UNK         0.0408 
     41 CB        -78.1869   26.5178  -78.2711 C.3       6 UNK        -0.1791 
     42 N         -77.3565   25.9339  -76.0136 N.am      6 UNK        -0.4762 
     43 C         -76.7231   26.1153  -74.8440 C.2       6 UNK         0.5007 
     44 O         -75.9381   27.0413  -74.6413 O.2       6 UNK        -0.5032 
     45 CA        -76.9435   25.0598  -73.7401 C.3       5 UNK         0.0783 
     46 C46       -78.1788   25.3641  -72.8521 C.3       11 UNK        -0.0857 
     47 S47       -77.8384   24.9855  -71.0984 S.3       11 UNK        -0.2512 
     48 C48       -78.2337   26.5488  -70.2442 C.3       11 UNK         0.0225 
     49 N         -77.0109   23.7092  -74.3025 N.am      5 UNK        -0.4615 
     50 C         -75.9638   23.0534  -74.8173 C.2       4 UNK         0.5053 
     51 O         -74.8224   23.5098  -74.8397 O.2       4 UNK        -0.5105 
     52 CA        -76.2343   21.6763  -75.4482 C.3       4 UNK         0.0263 
     53 CB        -76.0655   20.5659  -74.3997 C.3       4 UNK        -0.1981 
     54 N         -77.5561   21.5628  -76.0710 N.am      4 UNK        -0.4224 
     55 C         -77.9936   22.3109  -77.0938 C.2       3 UNK         0.4895 
     56 O         -77.3101   23.1784  -77.6405 O.2       3 UNK        -0.5091 
     57 CA        -79.4420   22.0815  -77.5757 C.3       3 UNK         0.0250 
     58 CB        -80.1945   20.9683  -76.8098 C.3       3 UNK        -0.1996 
     59 N         -80.2410   23.3153  -77.5700 N.am      3 UNK        -0.4254 
     60 C         -80.4220   24.1494  -76.5358 C.2       2 UNK         0.5004 
     61 O         -79.8800   24.0161  -75.4353 O.2       2 UNK        -0.5226 
     62 CA        -81.3783   25.3257  -76.7658 C.3       2 UNK         0.0269 
     63 CB        -82.8426   24.8691  -76.6458 C.3       2 UNK        -0.1926 
     64 N         -81.1180   26.3591  -75.7649 N.am      2 UNK        -0.4687 
     65 C         -81.1536   27.6815  -75.9758 C.2       1 UNK         0.5165 
     66 O         -81.4027   28.1854  -77.0717 O.2       1 UNK        -0.5079 
     67 H67       -82.8887   27.6253  -70.9283 H         1 UNK         0.0900 
     68 H68       -83.1735   26.1026  -71.7757 H         1 UNK         0.0900 
     69 H69       -81.5306   26.5793  -71.3556 H         1 UNK         0.0900 
     70 H70       -80.3679   27.6940  -72.9290 H         1 UNK         0.2959 
     71 H71       -81.5831   29.4381  -74.8737 H         1 UNK         0.1079 
     72 H72       -78.7022   28.4285  -74.6119 H         1 UNK         0.0837 
     73 H73       -79.2208   29.5753  -75.8192 H         1 UNK         0.0837 
     74 H74       -77.1473   31.5758  -73.0537 H         1 UNK         0.0685 
     75 H75       -76.9081   30.2815  -74.1990 H         1 UNK         0.0685 
     76 H76       -78.8036   28.4380  -72.0925 H         1 UNK         0.1434 
     77 H77       -75.7331   27.2363  -69.3731 H         1 UNK         0.1329 
     78 H78       -75.1414   30.6390  -71.9136 H         1 UNK         0.1335 
     79 H79       -73.9032   28.7746  -68.9238 H         1 UNK         0.0680 
     80 H80       -73.7971   30.2943  -69.7698 H         1 UNK         0.0680 
     81 H81       -70.5538   29.6448  -71.5002 H         1 UNK         0.1032 
     82 H82       -71.4054   30.5203  -70.2589 H         1 UNK         0.1032 
     83 H83       -73.0217   31.3895  -71.8903 H         1 UNK         0.0461 
     84 H84       -70.0575   33.2457  -73.8227 H         1 UNK         0.3453 
     85 H85       -70.8821   31.8510  -74.4783 H         1 UNK         0.3453 
     86 H86       -71.8728   29.4408  -73.7544 H         1 UNK         0.2984 
     87 H87       -74.7305   29.6666  -75.7766 H         1 UNK         0.0554 
     88 H88       -73.2395   31.1586  -77.0773 H         1 UNK         0.0847 
     89 H89       -73.1742   29.5191  -77.7039 H         1 UNK         0.0847 
     90 H90       -71.8530   30.1418  -76.7173 H         1 UNK         0.0847 
     91 H91       -74.1963   27.6226  -75.2891 H         1 UNK         0.3141 
     92 H92       -71.1763   25.7238  -75.1286 H         1 UNK         0.0743 
     93 H93       -71.9874   26.0852  -72.8059 H         1 UNK         0.0784 
     94 H94       -73.6575   25.9875  -73.3424 H         1 UNK         0.0784 
     95 H95       -72.6097   24.5729  -73.4455 H         1 UNK         0.0784 
     96 H96       -73.8657   24.9399  -75.6373 H         1 UNK         0.3213 
     97 H97       -73.7468   25.2697  -79.2157 H         1 UNK         0.0855 
     98 H98       -73.8810   22.8735  -77.3102 H         1 UNK         0.0814 
     99 H99       -72.8405   23.0362  -78.7133 H         1 UNK         0.0814 
    100 H100      -74.5806   22.9167  -78.9284 H         1 UNK         0.0814 
    101 H101      -75.8806   24.5190  -77.4912 H         1 UNK         0.3105 
    102 H102      -77.1615   27.8051  -76.9079 H         1 UNK         0.0547 
    103 H103      -79.1581   26.8648  -77.9303 H         1 UNK         0.0837 
    104 H104      -78.2722   25.4666  -78.5450 H         1 UNK         0.0837 
    105 H105      -77.9609   27.0714  -79.1836 H         1 UNK         0.0837 
    106 H106      -77.9566   25.1252  -76.1173 H         1 UNK         0.3020 
    107 H107      -76.0464   25.1123  -73.1178 H         1 UNK         0.1245 
    108 H108      -79.0445   24.7759  -73.1561 H         1 UNK         0.0781 
    109 H109      -78.4999   26.3965  -72.9519 H         1 UNK         0.0781 
    110 H110      -78.1086   26.4009  -69.1705 H         1 UNK         0.0836 
    111 H111      -79.2880   26.7850  -70.3911 H         1 UNK         0.0836 
    112 H112      -77.9329   23.2988  -74.3752 H         1 UNK         0.3022 
    113 H113      -75.4898   21.5200  -76.2305 H         1 UNK         0.0747 
    114 H114      -76.1639   19.5771  -74.8481 H         1 UNK         0.0793 
    115 H115      -75.0778   20.6131  -73.9383 H         1 UNK         0.0793 
    116 H116      -76.8027   20.6487  -73.6000 H         1 UNK         0.0793 
    117 H117      -78.1887   20.8837  -75.6735 H         1 UNK         0.3047 
    118 H118      -79.3614   21.7694  -78.6180 H         1 UNK         0.0822 
    119 H119      -81.1892   20.8144  -77.2285 H         1 UNK         0.0807 
    120 H120      -80.3212   21.2085  -75.7532 H         1 UNK         0.0807 
    121 H121      -79.6746   20.0118  -76.8803 H         1 UNK         0.0807 
    122 H122      -80.7048   23.5286  -78.4422 H         1 UNK         0.2946 
    123 H123      -81.2060   25.7192  -77.7698 H         1 UNK         0.1144 
    124 H124      -83.0543   24.4529  -75.6599 H         1 UNK         0.0793 
    125 H125      -83.0800   24.1014  -77.3833 H         1 UNK         0.0793 
    126 H126      -83.5298   25.6992  -76.8111 H         1 UNK         0.0793 
    127 H127      -80.8559   26.0082  -74.8539 H         1 UNK         0.2896 
@<TRIPOS>BOND
     1    1    2 1    
     2    1   67 1    
     3    1   68 1    
     4    1   69 1    
     5    2    3 2    
     6    2    4 am   BACKBONE|DICT|INTERRES
     7    4    5 1    
     8    4   70 1    
     9    5    6 1    
    10    5   65 1    
    11    5   71 1    
    12    6    7 1    
    13    6   72 1    
    14    6   73 1    
    15    7    8 1    
    16    8    9 1    
    17    8   74 1    
    18    8   75 1    
    19    9   10 ar   
    20    9   14 ar   
    21   10   11 ar   
    22   10   76 1    
    23   11   12 ar   
    24   11   48 1    
    25   12   13 ar   
    26   12   77 1    
    27   13   14 ar   
    28   13   15 1    
    29   14   78 1    
    30   15   16 1    
    31   15   79 1    
    32   15   80 1    
    33   16   17 1    
    34   17   18 1    
    35   17   81 1    
    36   17   82 1    
    37   18   19 1    
    38   18   22 1    
    39   18   83 1    
    40   19   20 am   BACKBONE|DICT|INTERRES
    41   19   21 2    
    42   20   84 1    
    43   20   85 1    
    44   22   23 am   BACKBONE|DICT|INTERRES
    45   22   86 1    
    46   23   24 2    
    47   23   25 1    
    48   25   26 1    
    49   25   27 1    
    50   25   87 1    
    51   26   88 1    
    52   26   89 1    
    53   26   90 1    
    54   27   28 am   BACKBONE|DICT|INTERRES
    55   27   91 1    
    56   28   29 2    
    57   28   30 1    
    58   30   31 1    
    59   30   32 1    
    60   30   92 1    
    61   31   93 1    
    62   31   94 1    
    63   31   95 1    
    64   32   33 am   BACKBONE|DICT|INTERRES
    65   32   96 1    
    66   33   34 2    
    67   33   35 1    
    68   35   36 1    
    69   35   37 1    
    70   35   97 1    
    71   36   98 1    
    72   36   99 1    
    73   36  100 1    
    74   37   38 am   BACKBONE|DICT|INTERRES
    75   37  101 1    
    76   38   39 2    
    77   38   40 1    
    78   40   41 1    
    79   40   42 1    
    80   40  102 1    
    81   41  103 1    
    82   41  104 1    
    83   41  105 1    
    84   42   43 am   BACKBONE|DICT|INTERRES
    85   42  106 1    
    86   43   44 2    
    87   43   45 1    
    88   45   46 1    
    89   45   49 1    
    90   45  107 1    
    91   46   47 1    
    92   46  108 1    
    93   46  109 1    
    94   47   48 1    
    95   48  110 1    
    96   48  111 1    
    97   49   50 am   BACKBONE|DICT|INTERRES
    98   49  112 1    
    99   50   51 2    
   100   50   52 1    
   101   52   53 1    
   102   52   54 1    
   103   52  113 1    
   104   53  114 1    
   105   53  115 1    
   106   53  116 1    
   107   54   55 am   BACKBONE|DICT|INTERRES
   108   54  117 1    
   109   55   56 2    
   110   55   57 1    
   111   57   58 1    
   112   57   59 1    
   113   57  118 1    
   114   58  119 1    
   115   58  120 1    
   116   58  121 1    
   117   59   60 am   BACKBONE|DICT|INTERRES
   118   59  122 1    
   119   60   61 2    
   120   60   62 1    
   121   62   63 1    
   122   62   64 1    
   123   62  123 1    
   124   63  124 1    
   125   63  125 1    
   126   63  126 1    
   127   64   65 am   BACKBONE|DICT|INTERRES
   128   64  127 1    
   129   65   66 2    
@<TRIPOS>SUBSTRUCTURE
     1 UNK         1 GROUP             0       ****    0 ROOT    
