@<TRIPOS>MOLECULE
3R135
127   129    1
SMALL
USER_CHARGES


@<TRIPOS>ATOM
      1 CA        -80.3104   24.9790  -72.3722 C.3       0 UNK        -0.1998 
      2 C         -80.2949   26.0341  -73.4671 C.2       0 UNK         0.4909 
      3 O         -79.4306   25.9825  -74.3448 O.2       0 UNK        -0.5240 
      4 N         -81.2694   26.9584  -73.4116 N.am      1 UNK        -0.4739 
      5 CA        -81.4889   28.1490  -74.2606 C.3       1 UNK         0.0864 
      6 C6        -80.8438   29.4549  -73.7019 C.3       11 UNK        -0.0881 
      7 S7        -79.0681   29.3478  -73.2776 S.3       11 UNK        -0.2682 
      8 C8        -79.0600   29.9757  -71.5632 C.3       11 UNK         0.0289 
      9 C9        -77.9461   29.3279  -70.7594 C.ar      11 UNK        -0.0687 
     10 C10       -78.1205   28.0305  -70.2761 C.ar      11 UNK        -0.0823 
     11 C11       -77.0766   27.3716  -69.6233 C.ar      11 UNK        -0.0830 
     12 C12       -75.8688   28.0398  -69.4019 C.ar      11 UNK        -0.1021 
     13 C13       -75.6864   29.3449  -69.8713 C.ar      11 UNK        -0.0753 
     14 C14       -76.7342   29.9896  -70.5396 C.ar      11 UNK        -0.0933 
     15 C15       -74.3413   30.0339  -69.6874 C.3       11 UNK         0.0166 
     16 S16       -73.2338   29.7561  -71.1131 S.3       11 UNK        -0.2615 
     17 C17       -73.8759   30.9660  -72.3195 C.3       11 UNK        -0.0865 
     18 CA        -74.5962   30.2893  -73.5272 C.3       10 UNK         0.0862 
     19 C         -75.6689   31.2118  -74.1918 C.2       10 UNK         0.5551 
     20 N         -75.9139   31.1124  -75.4935 N.am      10 UNK        -0.7319 
     21 O         -76.3081   32.0172  -73.5193 O.2       10 UNK        -0.5018 
     22 N         -73.6645   29.6577  -74.4867 N.am      10 UNK        -0.4509 
     23 C         -72.7778   30.3032  -75.2605 C.2       10 UNK         0.4899 
     24 O         -72.5311   31.5051  -75.1500 O.2       10 UNK        -0.4839 
     25 CA        -72.1113   29.5187  -76.4078 C.3       9 UNK         0.0222 
     26 CB        -70.7132   30.0601  -76.7812 C.3       9 UNK        -0.1966 
     27 N         -72.1129   28.0599  -76.2524 N.am      9 UNK        -0.4218 
     28 C         -71.3381   27.3088  -75.4545 C.2       9 UNK         0.5020 
     29 O         -70.5186   27.7788  -74.6638 O.2       9 UNK        -0.5274 
     30 CA        -71.4718   25.7714  -75.5582 C.3       8 UNK         0.0270 
     31 CB        -71.5562   25.1198  -74.1661 C.3       8 UNK        -0.1976 
     32 N         -72.6166   25.3299  -76.3623 N.am      8 UNK        -0.4313 
     33 C         -72.6478   25.2329  -77.6986 C.2       8 UNK         0.5041 
     34 O         -71.6687   25.4236  -78.4200 O.2       8 UNK        -0.5577 
     35 CA        -74.0160   24.9336  -78.3448 C.3       7 UNK         0.0284 
     36 CB        -74.2334   23.4203  -78.4985 C.3       7 UNK        -0.1958 
     37 N         -75.1411   25.5249  -77.6104 N.am      7 UNK        -0.4454 
     38 C         -75.3216   26.8425  -77.4327 C.2       7 UNK         0.5089 
     39 O         -74.6006   27.7063  -77.9315 O.2       7 UNK        -0.5125 
     40 CA        -76.4410   27.2675  -76.4698 C.3       6 UNK         0.0408 
     41 CB        -77.7945   27.3059  -77.1856 C.3       6 UNK        -0.1791 
     42 N         -76.5184   26.4065  -75.2866 N.am      6 UNK        -0.4762 
     43 C         -75.5373   26.2991  -74.3793 C.2       6 UNK         0.5007 
     44 O         -74.5041   26.9640  -74.4209 O.2       6 UNK        -0.5032 
     45 CA        -75.7023   25.2513  -73.2646 C.3       5 UNK         0.0783 
     46 C46       -76.5172   25.8361  -72.1004 C.3       11 UNK        -0.0857 
     47 S47       -76.4013   24.8377  -70.5717 S.3       11 UNK        -0.2512 
     48 C48       -77.2093   25.8900  -69.3063 C.3       11 UNK         0.0225 
     49 N         -76.2471   23.9936  -73.7787 N.am      5 UNK        -0.4615 
     50 C         -75.5596   23.1755  -74.5855 C.2       4 UNK         0.5053 
     51 O         -74.3971   23.3825  -74.9312 O.2       4 UNK        -0.5105 
     52 CA        -76.2921   21.9371  -75.1256 C.3       4 UNK         0.0263 
     53 CB        -76.1491   20.7617  -74.1460 C.3       4 UNK        -0.1981 
     54 N         -77.7115   22.1569  -75.4216 N.am      4 UNK        -0.4224 
     55 C         -78.1968   23.0594  -76.2867 C.2       3 UNK         0.4895 
     56 O         -77.4885   23.8580  -76.9039 O.2       3 UNK        -0.5091 
     57 CA        -79.7170   23.0534  -76.5205 C.3       3 UNK         0.0250 
     58 CB        -80.5265   22.3770  -75.3934 C.3       3 UNK        -0.1996 
     59 N         -80.2006   24.4217  -76.7002 N.am      3 UNK        -0.4254 
     60 C         -81.0007   24.8334  -77.6933 C.2       2 UNK         0.5004 
     61 O         -81.4040   24.0962  -78.5949 O.2       2 UNK        -0.5226 
     62 CA        -81.4549   26.3033  -77.6534 C.3       2 UNK         0.0269 
     63 CB        -82.7479   26.5594  -78.4529 C.3       2 UNK        -0.1926 
     64 N         -81.6383   26.7392  -76.2688 N.am      2 UNK        -0.4687 
     65 C         -81.3115   27.9436  -75.7856 C.2       1 UNK         0.5165 
     66 O         -80.9113   28.8670  -76.4971 O.2       1 UNK        -0.5079 
     67 H67       -79.4417   24.3259  -72.4492 H         1 UNK         0.0900 
     68 H68       -80.2929   25.4455  -71.3877 H         1 UNK         0.0900 
     69 H69       -81.2054   24.3621  -72.4488 H         1 UNK         0.0900 
     70 H70       -81.9422   26.8697  -72.6627 H         1 UNK         0.2959 
     71 H71       -82.5647   28.3175  -74.1854 H         1 UNK         0.1079 
     72 H72       -81.3996   29.7485  -72.8115 H         1 UNK         0.0837 
     73 H73       -80.9797   30.2917  -74.3892 H         1 UNK         0.0837 
     74 H74       -78.9496   31.0611  -71.5785 H         1 UNK         0.0685 
     75 H75       -80.0099   29.7658  -71.0703 H         1 UNK         0.0685 
     76 H76       -79.0449   27.5081  -70.4802 H         1 UNK         0.1434 
     77 H77       -75.0495   27.5205  -68.9233 H         1 UNK         0.1329 
     78 H78       -76.5983   30.9918  -70.9207 H         1 UNK         0.1335 
     79 H79       -73.8523   29.6494  -68.7910 H         1 UNK         0.0680 
     80 H80       -74.4782   31.1027  -69.5163 H         1 UNK         0.0680 
     81 H81       -73.0493   31.5921  -72.6542 H         1 UNK         0.1032 
     82 H82       -74.5380   31.6504  -71.7896 H         1 UNK         0.1032 
     83 H83       -75.1896   29.4655  -73.1281 H         1 UNK         0.0461 
     84 H84       -76.6163   31.7048  -75.9065 H         1 UNK         0.3453 
     85 H85       -75.4006   30.4606  -76.0626 H         1 UNK         0.3453 
     86 H86       -73.8066   28.6585  -74.6201 H         1 UNK         0.2984 
     87 H87       -72.7502   29.6999  -77.2730 H         1 UNK         0.0554 
     88 H88       -70.7692   31.1016  -77.0998 H         1 UNK         0.0847 
     89 H89       -70.2740   29.4964  -77.6042 H         1 UNK         0.0847 
     90 H90       -70.0230   30.0200  -75.9382 H         1 UNK         0.0847 
     91 H91       -72.7905   27.5803  -76.8344 H         1 UNK         0.3141 
     92 H92       -70.5588   25.4105  -76.0359 H         1 UNK         0.0743 
     93 H93       -72.4043   25.4970  -73.5956 H         1 UNK         0.0784 
     94 H94       -71.6553   24.0364  -74.2386 H         1 UNK         0.0784 
     95 H95       -70.6575   25.3229  -73.5825 H         1 UNK         0.0784 
     96 H96       -73.4586   25.0974  -75.8476 H         1 UNK         0.3213 
     97 H97       -74.0098   25.3773  -79.3428 H         1 UNK         0.0855 
     98 H98       -74.2196   22.9087  -77.5367 H         1 UNK         0.0814 
     99 H99       -73.4489   22.9763  -79.1126 H         1 UNK         0.0814 
    100 H100      -75.1866   23.2019  -78.9806 H         1 UNK         0.0814 
    101 H101      -75.8209   24.8890  -77.2004 H         1 UNK         0.3105 
    102 H102      -76.2185   28.2782  -76.1230 H         1 UNK         0.0547 
    103 H103      -78.5739   27.6362  -76.5028 H         1 UNK         0.0837 
    104 H104      -78.0781   26.3308  -77.5800 H         1 UNK         0.0837 
    105 H105      -77.7759   28.0058  -78.0216 H         1 UNK         0.0837 
    106 H106      -77.3657   25.8642  -75.1662 H         1 UNK         0.3020 
    107 H107      -74.6981   25.0438  -72.8873 H         1 UNK         0.1245 
    108 H108      -77.5627   25.9717  -72.3733 H         1 UNK         0.0781 
    109 H109      -76.1233   26.8312  -71.8914 H         1 UNK         0.0781 
    110 H110      -76.7720   25.6775  -68.3297 H         1 UNK         0.0836 
    111 H111      -78.2615   25.6101  -69.2356 H         1 UNK         0.0836 
    112 H112      -77.1985   23.7664  -73.5341 H         1 UNK         0.3022 
    113 H113      -75.8070   21.6581  -76.0631 H         1 UNK         0.0747 
    114 H114      -76.5692   19.8449  -74.5602 H         1 UNK         0.0793 
    115 H115      -75.0989   20.5631  -73.9263 H         1 UNK         0.0793 
    116 H116      -76.6477   20.9626  -73.1968 H         1 UNK         0.0793 
    117 H117      -78.3662   21.5400  -74.9631 H         1 UNK         0.3047 
    118 H118      -79.8700   22.4809  -77.4376 H         1 UNK         0.0822 
    119 H119      -81.5975   22.4513  -75.5836 H         1 UNK         0.0807 
    120 H120      -80.3333   22.8349  -74.4232 H         1 UNK         0.0807 
    121 H121      -80.2982   21.3134  -75.3162 H         1 UNK         0.0807 
    122 H122      -79.8746   25.0975  -76.0128 H         1 UNK         0.2946 
    123 H123      -80.6489   26.8784  -78.1148 H         1 UNK         0.1144 
    124 H124      -83.5837   25.9796  -78.0597 H         1 UNK         0.0793 
    125 H125      -82.6231   26.2872  -79.5017 H         1 UNK         0.0793 
    126 H126      -83.0280   27.6125  -78.4263 H         1 UNK         0.0793 
    127 H127      -81.9540   26.0329  -75.6181 H         1 UNK         0.2896 
@<TRIPOS>BOND
     1    1    2 1    
     2    1   67 1    
     3    1   68 1    
     4    1   69 1    
     5    2    3 2    
     6    2    4 am   BACKBONE|DICT|INTERRES
     7    4    5 1    
     8    4   70 1    
     9    5    6 1    
    10    5   65 1    
    11    5   71 1    
    12    6    7 1    
    13    6   72 1    
    14    6   73 1    
    15    7    8 1    
    16    8    9 1    
    17    8   74 1    
    18    8   75 1    
    19    9   10 ar   
    20    9   14 ar   
    21   10   11 ar   
    22   10   76 1    
    23   11   12 ar   
    24   11   48 1    
    25   12   13 ar   
    26   12   77 1    
    27   13   14 ar   
    28   13   15 1    
    29   14   78 1    
    30   15   16 1    
    31   15   79 1    
    32   15   80 1    
    33   16   17 1    
    34   17   18 1    
    35   17   81 1    
    36   17   82 1    
    37   18   19 1    
    38   18   22 1    
    39   18   83 1    
    40   19   20 am   BACKBONE|DICT|INTERRES
    41   19   21 2    
    42   20   84 1    
    43   20   85 1    
    44   22   23 am   BACKBONE|DICT|INTERRES
    45   22   86 1    
    46   23   24 2    
    47   23   25 1    
    48   25   26 1    
    49   25   27 1    
    50   25   87 1    
    51   26   88 1    
    52   26   89 1    
    53   26   90 1    
    54   27   28 am   BACKBONE|DICT|INTERRES
    55   27   91 1    
    56   28   29 2    
    57   28   30 1    
    58   30   31 1    
    59   30   32 1    
    60   30   92 1    
    61   31   93 1    
    62   31   94 1    
    63   31   95 1    
    64   32   33 am   BACKBONE|DICT|INTERRES
    65   32   96 1    
    66   33   34 2    
    67   33   35 1    
    68   35   36 1    
    69   35   37 1    
    70   35   97 1    
    71   36   98 1    
    72   36   99 1    
    73   36  100 1    
    74   37   38 am   BACKBONE|DICT|INTERRES
    75   37  101 1    
    76   38   39 2    
    77   38   40 1    
    78   40   41 1    
    79   40   42 1    
    80   40  102 1    
    81   41  103 1    
    82   41  104 1    
    83   41  105 1    
    84   42   43 am   BACKBONE|DICT|INTERRES
    85   42  106 1    
    86   43   44 2    
    87   43   45 1    
    88   45   46 1    
    89   45   49 1    
    90   45  107 1    
    91   46   47 1    
    92   46  108 1    
    93   46  109 1    
    94   47   48 1    
    95   48  110 1    
    96   48  111 1    
    97   49   50 am   BACKBONE|DICT|INTERRES
    98   49  112 1    
    99   50   51 2    
   100   50   52 1    
   101   52   53 1    
   102   52   54 1    
   103   52  113 1    
   104   53  114 1    
   105   53  115 1    
   106   53  116 1    
   107   54   55 am   BACKBONE|DICT|INTERRES
   108   54  117 1    
   109   55   56 2    
   110   55   57 1    
   111   57   58 1    
   112   57   59 1    
   113   57  118 1    
   114   58  119 1    
   115   58  120 1    
   116   58  121 1    
   117   59   60 am   BACKBONE|DICT|INTERRES
   118   59  122 1    
   119   60   61 2    
   120   60   62 1    
   121   62   63 1    
   122   62   64 1    
   123   62  123 1    
   124   63  124 1    
   125   63  125 1    
   126   63  126 1    
   127   64   65 am   BACKBONE|DICT|INTERRES
   128   64  127 1    
   129   65   66 2    
@<TRIPOS>SUBSTRUCTURE
     1 UNK         1 GROUP             0       ****    0 ROOT    
