@<TRIPOS>MOLECULE
3R135
127   129    1
SMALL
USER_CHARGES


@<TRIPOS>ATOM
      1 CA        -80.3928   31.9796  -75.0449 C.3       0 UNK        -0.1998 
      2 C         -80.8511   30.6021  -74.5890 C.2       0 UNK         0.4909 
      3 O         -81.9770   30.2031  -74.8900 O.2       0 UNK        -0.5240 
      4 N         -79.9810   29.8854  -73.8660 N.am      1 UNK        -0.4739 
      5 CA        -80.1696   28.5189  -73.3587 C.3       1 UNK         0.0864 
      6 C6        -81.3454   28.3627  -72.3401 C.3       11 UNK        -0.0881 
      7 S7        -81.4400   29.6831  -71.0725 S.3       11 UNK        -0.2682 
      8 C8        -80.4518   29.0132  -69.6919 C.3       11 UNK         0.0289 
      9 C9        -79.0164   28.7220  -70.1050 C.ar      11 UNK        -0.0687 
     10 C10       -78.5107   27.4213  -70.0118 C.ar      11 UNK        -0.0823 
     11 C11       -77.2311   27.1254  -70.4889 C.ar      11 UNK        -0.0830 
     12 C12       -76.4501   28.1437  -71.0410 C.ar      11 UNK        -0.1021 
     13 C13       -76.9486   29.4424  -71.1495 C.ar      11 UNK        -0.0753 
     14 C14       -78.2188   29.7361  -70.6481 C.ar      11 UNK        -0.0933 
     15 C15       -76.1561   30.4901  -71.9104 C.3       11 UNK         0.0166 
     16 S16       -76.6152   30.4169  -73.6693 S.3       11 UNK        -0.2615 
     17 C17       -75.2340   31.2895  -74.4756 C.3       11 UNK        -0.0865 
     18 CA        -74.2692   30.2981  -75.1928 C.3       10 UNK         0.0862 
     19 C         -73.3577   30.9816  -76.2607 C.2       10 UNK         0.5551 
     20 N         -72.1578   30.4784  -76.5292 N.am      10 UNK        -0.7319 
     21 O         -73.7511   31.9671  -76.8803 O.2       10 UNK        -0.5018 
     22 N         -73.5487   29.4125  -74.2607 N.am      10 UNK        -0.4509 
     23 C         -72.6073   29.7981  -73.3866 C.2       10 UNK         0.4899 
     24 O         -72.3344   30.9746  -73.1466 O.2       10 UNK        -0.4839 
     25 CA        -71.7960   28.6995  -72.6727 C.3       9 UNK         0.0222 
     26 CB        -72.2862   28.5049  -71.2289 C.3       9 UNK        -0.1966 
     27 N         -71.7600   27.3999  -73.3536 N.am      9 UNK        -0.4218 
     28 C         -71.2839   27.1693  -74.5861 C.2       9 UNK         0.5020 
     29 O         -70.8681   28.0563  -75.3346 O.2       9 UNK        -0.5274 
     30 CA        -71.2670   25.7129  -75.0753 C.3       8 UNK         0.0270 
     31 CB        -71.7163   24.6781  -74.0214 C.3       8 UNK        -0.1976 
     32 N         -72.1423   25.6078  -76.2371 N.am      8 UNK        -0.4313 
     33 C         -71.7647   25.2809  -77.4792 C.2       8 UNK         0.5041 
     34 O         -70.5995   25.0351  -77.7968 O.2       8 UNK        -0.5577 
     35 CA        -72.8630   25.1864  -78.5563 C.3       7 UNK         0.0284 
     36 CB        -72.9496   23.7572  -79.1205 C.3       7 UNK        -0.1958 
     37 N         -74.1811   25.5642  -78.0425 N.am      7 UNK        -0.4454 
     38 C         -74.7217   26.7863  -78.1380 C.2       7 UNK         0.5089 
     39 O         -74.1920   27.7262  -78.7300 O.2       7 UNK        -0.5125 
     40 CA        -76.0773   27.0078  -77.4420 C.3       6 UNK         0.0408 
     41 CB        -77.2274   26.8852  -78.4530 C.3       6 UNK        -0.1791 
     42 N         -76.3234   26.0956  -76.3222 N.am      6 UNK        -0.4762 
     43 C         -75.6224   26.0803  -75.1778 C.2       6 UNK         0.5007 
     44 O         -74.6547   26.8099  -74.9567 O.2       6 UNK        -0.5032 
     45 CA        -76.0415   25.0438  -74.1153 C.3       5 UNK         0.0783 
     46 C46       -77.2193   25.6095  -73.2951 C.3       11 UNK        -0.0857 
     47 S47       -77.5400   24.6726  -71.7626 S.3       11 UNK        -0.2512 
     48 C48       -76.7191   25.6922  -70.4892 C.3       11 UNK         0.0225 
     49 N         -76.3934   23.7387  -74.6809 N.am      5 UNK        -0.4615 
     50 C         -75.6998   23.0243  -75.5761 C.2       4 UNK         0.5053 
     51 O         -74.5849   23.3351  -75.9932 O.2       4 UNK        -0.5105 
     52 CA        -76.4034   21.7833  -76.1522 C.3       4 UNK         0.0263 
     53 CB        -75.9358   20.5166  -75.4187 C.3       4 UNK        -0.1981 
     54 N         -77.8731   21.8482  -76.1243 N.am      4 UNK        -0.4224 
     55 C         -78.6267   22.7848  -76.7238 C.2       3 UNK         0.4895 
     56 O         -78.1712   23.7662  -77.3110 O.2       3 UNK        -0.5091 
     57 CA        -80.1478   22.6264  -76.6011 C.3       3 UNK         0.0250 
     58 CB        -80.6251   21.2746  -77.1612 C.3       3 UNK        -0.1996 
     59 N         -80.5740   22.7596  -75.2043 N.am      3 UNK        -0.4254 
     60 C         -80.8812   23.8833  -74.5377 C.2       2 UNK         0.5004 
     61 O         -81.1730   23.8575  -73.3410 O.2       2 UNK        -0.5226 
     62 CA        -80.9213   25.2363  -75.2719 C.3       2 UNK         0.0269 
     63 CB        -82.2548   25.4230  -76.0224 C.3       2 UNK        -0.1926 
     64 N         -80.7874   26.3135  -74.2914 N.am      2 UNK        -0.4687 
     65 C         -80.2030   27.4950  -74.5208 C.2       1 UNK         0.5165 
     66 O         -79.6700   27.7729  -75.5984 O.2       1 UNK        -0.5079 
     67 H67       -80.4188   32.0425  -76.1324 H         1 UNK         0.0900 
     68 H68       -79.3767   32.2001  -74.7172 H         1 UNK         0.0900 
     69 H69       -81.0532   32.7470  -74.6419 H         1 UNK         0.0900 
     70 H70       -79.0585   30.2653  -73.6982 H         1 UNK         0.2959 
     71 H71       -79.2465   28.2862  -72.8288 H         1 UNK         0.1079 
     72 H72       -82.2999   28.3599  -72.8696 H         1 UNK         0.0837 
     73 H73       -81.2827   27.4024  -71.8256 H         1 UNK         0.0837 
     74 H74       -80.4467   29.7368  -68.8758 H         1 UNK         0.0685 
     75 H75       -80.9411   28.1164  -69.3084 H         1 UNK         0.0685 
     76 H76       -79.1274   26.6267  -69.6141 H         1 UNK         0.1434 
     77 H77       -75.4833   27.9092  -71.4610 H         1 UNK         0.1329 
     78 H78       -78.6195   30.7353  -70.7523 H         1 UNK         0.1335 
     79 H79       -75.0870   30.3098  -71.7928 H         1 UNK         0.0680 
     80 H80       -76.3542   31.4885  -71.5177 H         1 UNK         0.0680 
     81 H81       -74.7040   31.9169  -73.7582 H         1 UNK         0.1032 
     82 H82       -75.6841   31.9773  -75.1932 H         1 UNK         0.1032 
     83 H83       -74.8901   29.6273  -75.7861 H         1 UNK         0.0461 
     84 H84       -71.5848   30.9212  -77.2291 H         1 UNK         0.3453 
     85 H85       -71.8145   29.6552  -76.0444 H         1 UNK         0.3453 
     86 H86       -73.7282   28.4215  -74.3912 H         1 UNK         0.2984 
     87 H87       -70.7660   29.0592  -72.6269 H         1 UNK         0.0554 
     88 H88       -71.6017   27.8755  -70.6600 H         1 UNK         0.0847 
     89 H89       -73.2707   28.0424  -71.1945 H         1 UNK         0.0847 
     90 H90       -72.3547   29.4589  -70.7038 H         1 UNK         0.0847 
     91 H91       -72.0935   26.6075  -72.8252 H         1 UNK         0.3141 
     92 H92       -70.2340   25.4887  -75.3487 H         1 UNK         0.0743 
     93 H93       -71.0773   24.7046  -73.1376 H         1 UNK         0.0784 
     94 H94       -72.7472   24.8337  -73.7029 H         1 UNK         0.0784 
     95 H95       -71.6547   23.6669  -74.4249 H         1 UNK         0.0784 
     96 H96       -73.1106   25.8595  -76.0783 H         1 UNK         0.3213 
     97 H97       -72.5764   25.8556  -79.3705 H         1 UNK         0.0855 
     98 H98       -72.0002   23.4528  -79.5632 H         1 UNK         0.0814 
     99 H99       -73.7072   23.6835  -79.9007 H         1 UNK         0.0814 
    100 H100      -73.1941   23.0308  -78.3445 H         1 UNK         0.0814 
    101 H101      -74.6633   24.8587  -77.4963 H         1 UNK         0.3105 
    102 H102      -76.0837   28.0251  -77.0472 H         1 UNK         0.0547 
    103 H103      -77.0992   27.5875  -79.2777 H         1 UNK         0.0837 
    104 H104      -77.2827   25.8840  -78.8821 H         1 UNK         0.0837 
    105 H105      -78.1890   27.1044  -77.9879 H         1 UNK         0.0837 
    106 H106      -77.0633   25.4142  -76.4535 H         1 UNK         0.3020 
    107 H107      -75.1847   24.8977  -73.4552 H         1 UNK         0.1245 
    108 H108      -78.1294   25.5729  -73.8927 H         1 UNK         0.0781 
    109 H109      -77.0738   26.6644  -73.0724 H         1 UNK         0.0781 
    110 H110      -75.6404   25.6659  -70.6514 H         1 UNK         0.0836 
    111 H111      -76.8911   25.2443  -69.5095 H         1 UNK         0.0836 
    112 H112      -77.2839   23.3677  -74.3858 H         1 UNK         0.3022 
    113 H113      -76.1019   21.7039  -77.1987 H         1 UNK         0.0747 
    114 H114      -76.3404   19.6163  -75.8815 H         1 UNK         0.0793 
    115 H115      -74.8483   20.4298  -75.4446 H         1 UNK         0.0793 
    116 H116      -76.2371   20.5220  -74.3703 H         1 UNK         0.0793 
    117 H117      -78.3411   21.0904  -75.6490 H         1 UNK         0.3047 
    118 H118      -80.6050   23.3987  -77.2194 H         1 UNK         0.0822 
    119 H119      -81.7140   21.2238  -77.1835 H         1 UNK         0.0807 
    120 H120      -80.2686   20.4285  -76.5730 H         1 UNK         0.0807 
    121 H121      -80.2772   21.1308  -78.1853 H         1 UNK         0.0807 
    122 H122      -80.5940   21.8995  -74.6759 H         1 UNK         0.2946 
    123 H123      -80.0868   25.2858  -75.9737 H         1 UNK         0.1144 
    124 H124      -82.2629   26.3577  -76.5836 H         1 UNK         0.0793 
    125 H125      -83.1005   25.4421  -75.3339 H         1 UNK         0.0793 
    126 H126      -82.4407   24.6193  -76.7344 H         1 UNK         0.0793 
    127 H127      -81.1375   26.0817  -73.3702 H         1 UNK         0.2896 
@<TRIPOS>BOND
     1    1    2 1    
     2    1   67 1    
     3    1   68 1    
     4    1   69 1    
     5    2    3 2    
     6    2    4 am   BACKBONE|DICT|INTERRES
     7    4    5 1    
     8    4   70 1    
     9    5    6 1    
    10    5   65 1    
    11    5   71 1    
    12    6    7 1    
    13    6   72 1    
    14    6   73 1    
    15    7    8 1    
    16    8    9 1    
    17    8   74 1    
    18    8   75 1    
    19    9   10 ar   
    20    9   14 ar   
    21   10   11 ar   
    22   10   76 1    
    23   11   12 ar   
    24   11   48 1    
    25   12   13 ar   
    26   12   77 1    
    27   13   14 ar   
    28   13   15 1    
    29   14   78 1    
    30   15   16 1    
    31   15   79 1    
    32   15   80 1    
    33   16   17 1    
    34   17   18 1    
    35   17   81 1    
    36   17   82 1    
    37   18   19 1    
    38   18   22 1    
    39   18   83 1    
    40   19   20 am   BACKBONE|DICT|INTERRES
    41   19   21 2    
    42   20   84 1    
    43   20   85 1    
    44   22   23 am   BACKBONE|DICT|INTERRES
    45   22   86 1    
    46   23   24 2    
    47   23   25 1    
    48   25   26 1    
    49   25   27 1    
    50   25   87 1    
    51   26   88 1    
    52   26   89 1    
    53   26   90 1    
    54   27   28 am   BACKBONE|DICT|INTERRES
    55   27   91 1    
    56   28   29 2    
    57   28   30 1    
    58   30   31 1    
    59   30   32 1    
    60   30   92 1    
    61   31   93 1    
    62   31   94 1    
    63   31   95 1    
    64   32   33 am   BACKBONE|DICT|INTERRES
    65   32   96 1    
    66   33   34 2    
    67   33   35 1    
    68   35   36 1    
    69   35   37 1    
    70   35   97 1    
    71   36   98 1    
    72   36   99 1    
    73   36  100 1    
    74   37   38 am   BACKBONE|DICT|INTERRES
    75   37  101 1    
    76   38   39 2    
    77   38   40 1    
    78   40   41 1    
    79   40   42 1    
    80   40  102 1    
    81   41  103 1    
    82   41  104 1    
    83   41  105 1    
    84   42   43 am   BACKBONE|DICT|INTERRES
    85   42  106 1    
    86   43   44 2    
    87   43   45 1    
    88   45   46 1    
    89   45   49 1    
    90   45  107 1    
    91   46   47 1    
    92   46  108 1    
    93   46  109 1    
    94   47   48 1    
    95   48  110 1    
    96   48  111 1    
    97   49   50 am   BACKBONE|DICT|INTERRES
    98   49  112 1    
    99   50   51 2    
   100   50   52 1    
   101   52   53 1    
   102   52   54 1    
   103   52  113 1    
   104   53  114 1    
   105   53  115 1    
   106   53  116 1    
   107   54   55 am   BACKBONE|DICT|INTERRES
   108   54  117 1    
   109   55   56 2    
   110   55   57 1    
   111   57   58 1    
   112   57   59 1    
   113   57  118 1    
   114   58  119 1    
   115   58  120 1    
   116   58  121 1    
   117   59   60 am   BACKBONE|DICT|INTERRES
   118   59  122 1    
   119   60   61 2    
   120   60   62 1    
   121   62   63 1    
   122   62   64 1    
   123   62  123 1    
   124   63  124 1    
   125   63  125 1    
   126   63  126 1    
   127   64   65 am   BACKBONE|DICT|INTERRES
   128   64  127 1    
   129   65   66 2    
@<TRIPOS>SUBSTRUCTURE
     1 UNK         1 GROUP             0       ****    0 ROOT    
