@<TRIPOS>MOLECULE
3R135
127   129    1
SMALL
USER_CHARGES


@<TRIPOS>ATOM
      1 CA        -78.8072   25.1223  -68.0824 C.3       0 UNK        -0.1998 
      2 C         -79.8749   25.5083  -69.0955 C.2       0 UNK         0.4909 
      3 O         -81.0320   25.1122  -68.9480 O.2       0 UNK        -0.5240 
      4 N         -79.4953   26.2864  -70.1169 N.am      1 UNK        -0.4739 
      5 CA        -80.3617   26.6867  -71.2311 C.3       1 UNK         0.0864 
      6 C6        -79.7988   27.9421  -71.9450 C.3       11 UNK        -0.0881 
      7 S7        -81.1082   28.9462  -72.7302 S.3       11 UNK        -0.2682 
      8 C8        -80.4238   30.6294  -72.5870 C.3       11 UNK         0.0289 
      9 C9        -79.0613   30.7304  -73.2552 C.ar      11 UNK        -0.0687 
     10 C10       -78.9553   30.6545  -74.6452 C.ar      11 UNK        -0.0823 
     11 C11       -77.7016   30.6567  -75.2676 C.ar      11 UNK        -0.0830 
     12 C12       -76.5508   30.7761  -74.4792 C.ar      11 UNK        -0.1021 
     13 C13       -76.6451   30.8837  -73.0872 C.ar      11 UNK        -0.0753 
     14 C14       -77.9056   30.8649  -72.4833 C.ar      11 UNK        -0.0933 
     15 C15       -75.3874   31.0325  -72.2372 C.3       11 UNK         0.0166 
     16 S16       -75.2992   29.8130  -70.8828 S.3       11 UNK        -0.2615 
     17 C17       -75.0776   28.2590  -71.8094 C.3       11 UNK        -0.0865 
     18 CA        -73.6273   27.7108  -71.6983 C.3       10 UNK         0.0862 
     19 C         -73.4580   26.7221  -70.5083 C.2       10 UNK         0.5551 
     20 N         -73.4925   27.2265  -69.2829 N.am      10 UNK        -0.7319 
     21 O         -73.3308   25.5109  -70.6769 O.2       10 UNK        -0.5018 
     22 N         -73.1714   27.1828  -72.9900 N.am      10 UNK        -0.4509 
     23 C         -71.9050   26.8824  -73.3019 C.2       10 UNK         0.4899 
     24 O         -70.9560   26.9745  -72.5220 O.2       10 UNK        -0.4839 
     25 CA        -71.6443   26.4597  -74.7588 C.3       9 UNK         0.0222 
     26 CB        -71.9536   24.9667  -74.9550 C.3       9 UNK        -0.1966 
     27 N         -72.3955   27.2505  -75.7414 N.am      9 UNK        -0.4218 
     28 C         -72.3137   28.5836  -75.8915 C.2       9 UNK         0.5020 
     29 O         -71.5754   29.3053  -75.2178 O.2       9 UNK        -0.5274 
     30 CA        -73.2006   29.2115  -76.9873 C.3       8 UNK         0.0270 
     31 CB        -72.8566   30.6865  -77.2817 C.3       8 UNK        -0.1976 
     32 N         -73.2217   28.4277  -78.2269 N.am      8 UNK        -0.4313 
     33 C         -72.1714   28.0282  -78.9645 C.2       8 UNK         0.5041 
     34 O         -71.0117   28.3882  -78.7544 O.2       8 UNK        -0.5577 
     35 CA        -72.4563   27.0515  -80.1291 C.3       7 UNK         0.0284 
     36 CB        -71.3075   26.0404  -80.3338 C.3       7 UNK        -0.1958 
     37 N         -73.7451   26.3501  -80.0247 N.am      7 UNK        -0.4454 
     38 C         -74.1555   25.5501  -79.0297 C.2       7 UNK         0.5089 
     39 O         -73.4709   25.2416  -78.0521 O.2       7 UNK        -0.5125 
     40 CA        -75.6232   25.0974  -79.0990 C.3       6 UNK         0.0408 
     41 CB        -75.7211   23.5645  -79.1242 C.3       6 UNK        -0.1791 
     42 N         -76.3973   25.6308  -77.9722 N.am      6 UNK        -0.4762 
     43 C         -76.5416   26.9383  -77.6882 C.2       6 UNK         0.5007 
     44 O         -76.0491   27.8303  -78.3811 O.2       6 UNK        -0.5032 
     45 CA        -77.3278   27.3321  -76.4159 C.3       5 UNK         0.0783 
     46 C46       -78.7386   27.8825  -76.7459 C.3       11 UNK        -0.0857 
     47 S47       -78.8264   29.5003  -77.6016 S.3       11 UNK        -0.2512 
     48 C48       -77.5645   30.5478  -76.7861 C.3       11 UNK         0.0225 
     49 N         -77.4146   26.2295  -75.4565 N.am      5 UNK        -0.4615 
     50 C         -76.3864   25.7954  -74.7137 C.2       4 UNK         0.5053 
     51 O         -75.2944   26.3626  -74.6832 O.2       4 UNK        -0.5105 
     52 CA        -76.5890   24.5173  -73.8759 C.3       4 UNK         0.0263 
     53 CB        -76.6236   24.8502  -72.3781 C.3       4 UNK        -0.1981 
     54 N         -77.7924   23.7589  -74.2350 N.am      4 UNK        -0.4224 
     55 C         -77.9458   23.0981  -75.3936 C.2       3 UNK         0.4895 
     56 O         -77.0687   23.0346  -76.2533 O.2       3 UNK        -0.5091 
     57 CA        -79.3063   22.4355  -75.6790 C.3       3 UNK         0.0250 
     58 CB        -79.2419   20.9303  -75.3751 C.3       3 UNK        -0.1996 
     59 N         -80.4363   23.0249  -74.9559 N.am      3 UNK        -0.4254 
     60 C         -80.8374   24.3016  -75.0362 C.2       2 UNK         0.5004 
     61 O         -80.2865   25.1474  -75.7428 O.2       2 UNK        -0.5226 
     62 CA        -82.0146   24.7265  -74.1362 C.3       2 UNK         0.0269 
     63 CB        -82.7810   23.5463  -73.4955 C.3       2 UNK        -0.1926 
     64 N         -81.5905   25.6726  -73.0965 N.am      2 UNK        -0.4687 
     65 C         -80.5912   25.5156  -72.2150 C.2       1 UNK         0.5165 
     66 O         -79.8612   24.5196  -72.1787 O.2       1 UNK        -0.5079 
     67 H67       -77.8347   25.5466  -68.3321 H         1 UNK         0.0900 
     68 H68       -79.0863   25.4745  -67.0898 H         1 UNK         0.0900 
     69 H69       -78.7033   24.0383  -68.0433 H         1 UNK         0.0900 
     70 H70       -78.5273   26.5607  -70.1916 H         1 UNK         0.2959 
     71 H71       -81.3333   26.9399  -70.7994 H         1 UNK         0.1079 
     72 H72       -79.2949   28.5798  -71.2167 H         1 UNK         0.0837 
     73 H73       -79.0405   27.6852  -72.6884 H         1 UNK         0.0837 
     74 H74       -81.1116   31.3359  -73.0537 H         1 UNK         0.0685 
     75 H75       -80.3648   30.9058  -71.5331 H         1 UNK         0.0685 
     76 H76       -79.8564   30.5623  -75.2354 H         1 UNK         0.1434 
     77 H77       -75.5775   30.7925  -74.9506 H         1 UNK         0.1329 
     78 H78       -77.9829   30.9349  -71.4070 H         1 UNK         0.1335 
     79 H79       -74.4877   30.9452  -72.8489 H         1 UNK         0.0680 
     80 H80       -75.3732   32.0349  -71.8076 H         1 UNK         0.0680 
     81 H81       -75.8131   27.5371  -71.4533 H         1 UNK         0.1032 
     82 H82       -75.3446   28.4408  -72.8514 H         1 UNK         0.1032 
     83 H83       -72.9574   28.5491  -71.4948 H         1 UNK         0.0461 
     84 H84       -73.6303   28.2151  -69.1375 H         1 UNK         0.3453 
     85 H85       -73.3959   26.6090  -68.4923 H         1 UNK         0.3453 
     86 H86       -73.8925   26.9961  -73.6835 H         1 UNK         0.2984 
     87 H87       -70.5831   26.6157  -74.9625 H         1 UNK         0.0554 
     88 H88       -71.4044   24.3554  -74.2376 H         1 UNK         0.0847 
     89 H89       -71.6686   24.6306  -75.9523 H         1 UNK         0.0847 
     90 H90       -73.0149   24.7527  -74.8222 H         1 UNK         0.0847 
     91 H91       -73.0094   26.7300  -76.3570 H         1 UNK         0.3141 
     92 H92       -74.2180   29.1847  -76.5949 H         1 UNK         0.0743 
     93 H93       -71.8357   30.7965  -77.6489 H         1 UNK         0.0784 
     94 H94       -73.5294   31.1085  -78.0283 H         1 UNK         0.0784 
     95 H95       -72.9478   31.2974  -76.3827 H         1 UNK         0.0784 
     96 H96       -74.1437   28.0927  -78.4977 H         1 UNK         0.3213 
     97 H97       -72.5172   27.6689  -81.0267 H         1 UNK         0.0855 
     98 H98       -71.1377   25.4360  -79.4420 H         1 UNK         0.0814 
     99 H99       -70.3709   26.5505  -80.5621 H         1 UNK         0.0814 
    100 H100      -71.5154   25.3646  -81.1632 H         1 UNK         0.0814 
    101 H101      -74.4126   26.5694  -80.7523 H         1 UNK         0.3105 
    102 H102      -76.0754   25.4790  -80.0167 H         1 UNK         0.0547 
    103 H103      -75.2062   23.1558  -79.9944 H         1 UNK         0.0837 
    104 H104      -75.2660   23.1173  -78.2394 H         1 UNK         0.0837 
    105 H105      -76.7576   23.2305  -79.1728 H         1 UNK         0.0837 
    106 H106      -76.7697   24.9465  -77.3245 H         1 UNK         0.3020 
    107 H107      -76.7523   28.1176  -75.9263 H         1 UNK         0.1245 
    108 H108      -79.3079   27.9899  -75.8206 H         1 UNK         0.0781 
    109 H109      -79.2958   27.1575  -77.3421 H         1 UNK         0.0781 
    110 H110      -77.6356   31.5521  -77.2053 H         1 UNK         0.0836 
    111 H111      -76.5741   30.1821  -77.0593 H         1 UNK         0.0836 
    112 H112      -78.2960   25.7271  -75.4317 H         1 UNK         0.3022 
    113 H113      -75.7252   23.8743  -74.0576 H         1 UNK         0.0747 
    114 H114      -76.8359   23.9675  -71.7747 H         1 UNK         0.0793 
    115 H115      -75.6585   25.2354  -72.0524 H         1 UNK         0.0793 
    116 H116      -77.3761   25.6043  -72.1491 H         1 UNK         0.0793 
    117 H117      -78.5694   23.8021  -73.5815 H         1 UNK         0.3047 
    118 H118      -79.5036   22.5611  -76.7457 H         1 UNK         0.0822 
    119 H119      -80.1620   20.4249  -75.6693 H         1 UNK         0.0807 
    120 H120      -79.0765   20.7397  -74.3139 H         1 UNK         0.0807 
    121 H121      -78.4258   20.4559  -75.9223 H         1 UNK         0.0807 
    122 H122      -80.9279   22.4169  -74.3171 H         1 UNK         0.2946 
    123 H123      -82.7095   25.2605  -74.7867 H         1 UNK         0.1144 
    124 H124      -83.6593   23.9022  -72.9568 H         1 UNK         0.0793 
    125 H125      -82.1685   22.9898  -72.7849 H         1 UNK         0.0793 
    126 H126      -83.1380   22.8467  -74.2528 H         1 UNK         0.0793 
    127 H127      -82.0775   26.5596  -73.0932 H         1 UNK         0.2896 
@<TRIPOS>BOND
     1    1    2 1    
     2    1   67 1    
     3    1   68 1    
     4    1   69 1    
     5    2    3 2    
     6    2    4 am   BACKBONE|DICT|INTERRES
     7    4    5 1    
     8    4   70 1    
     9    5    6 1    
    10    5   65 1    
    11    5   71 1    
    12    6    7 1    
    13    6   72 1    
    14    6   73 1    
    15    7    8 1    
    16    8    9 1    
    17    8   74 1    
    18    8   75 1    
    19    9   10 ar   
    20    9   14 ar   
    21   10   11 ar   
    22   10   76 1    
    23   11   12 ar   
    24   11   48 1    
    25   12   13 ar   
    26   12   77 1    
    27   13   14 ar   
    28   13   15 1    
    29   14   78 1    
    30   15   16 1    
    31   15   79 1    
    32   15   80 1    
    33   16   17 1    
    34   17   18 1    
    35   17   81 1    
    36   17   82 1    
    37   18   19 1    
    38   18   22 1    
    39   18   83 1    
    40   19   20 am   BACKBONE|DICT|INTERRES
    41   19   21 2    
    42   20   84 1    
    43   20   85 1    
    44   22   23 am   BACKBONE|DICT|INTERRES
    45   22   86 1    
    46   23   24 2    
    47   23   25 1    
    48   25   26 1    
    49   25   27 1    
    50   25   87 1    
    51   26   88 1    
    52   26   89 1    
    53   26   90 1    
    54   27   28 am   BACKBONE|DICT|INTERRES
    55   27   91 1    
    56   28   29 2    
    57   28   30 1    
    58   30   31 1    
    59   30   32 1    
    60   30   92 1    
    61   31   93 1    
    62   31   94 1    
    63   31   95 1    
    64   32   33 am   BACKBONE|DICT|INTERRES
    65   32   96 1    
    66   33   34 2    
    67   33   35 1    
    68   35   36 1    
    69   35   37 1    
    70   35   97 1    
    71   36   98 1    
    72   36   99 1    
    73   36  100 1    
    74   37   38 am   BACKBONE|DICT|INTERRES
    75   37  101 1    
    76   38   39 2    
    77   38   40 1    
    78   40   41 1    
    79   40   42 1    
    80   40  102 1    
    81   41  103 1    
    82   41  104 1    
    83   41  105 1    
    84   42   43 am   BACKBONE|DICT|INTERRES
    85   42  106 1    
    86   43   44 2    
    87   43   45 1    
    88   45   46 1    
    89   45   49 1    
    90   45  107 1    
    91   46   47 1    
    92   46  108 1    
    93   46  109 1    
    94   47   48 1    
    95   48  110 1    
    96   48  111 1    
    97   49   50 am   BACKBONE|DICT|INTERRES
    98   49  112 1    
    99   50   51 2    
   100   50   52 1    
   101   52   53 1    
   102   52   54 1    
   103   52  113 1    
   104   53  114 1    
   105   53  115 1    
   106   53  116 1    
   107   54   55 am   BACKBONE|DICT|INTERRES
   108   54  117 1    
   109   55   56 2    
   110   55   57 1    
   111   57   58 1    
   112   57   59 1    
   113   57  118 1    
   114   58  119 1    
   115   58  120 1    
   116   58  121 1    
   117   59   60 am   BACKBONE|DICT|INTERRES
   118   59  122 1    
   119   60   61 2    
   120   60   62 1    
   121   62   63 1    
   122   62   64 1    
   123   62  123 1    
   124   63  124 1    
   125   63  125 1    
   126   63  126 1    
   127   64   65 am   BACKBONE|DICT|INTERRES
   128   64  127 1    
   129   65   66 2    
@<TRIPOS>SUBSTRUCTURE
     1 UNK         1 GROUP             0       ****    0 ROOT    
