@<TRIPOS>MOLECULE
3R135
127   129    1
SMALL
USER_CHARGES


@<TRIPOS>ATOM
      1 CA        -81.7936   22.5133  -72.1135 C.3       0 UNK        -0.1998 
      2 C         -81.4596   23.9060  -72.6227 C.2       0 UNK         0.4909 
      3 O         -80.5356   24.0523  -73.4240 O.2       0 UNK        -0.5240 
      4 N         -82.2171   24.9222  -72.1831 N.am      1 UNK        -0.4739 
      5 CA        -82.0831   26.3670  -72.4595 C.3       1 UNK         0.0864 
      6 C6        -80.7116   26.9678  -72.0528 C.3       11 UNK        -0.0881 
      7 S7        -80.1934   26.6032  -70.3410 S.3       11 UNK        -0.2682 
      8 C8        -79.3877   28.1652  -69.8539 C.3       11 UNK         0.0289 
      9 C9        -78.2907   28.5806  -70.8269 C.ar      11 UNK        -0.0687 
     10 C10       -78.5307   29.5935  -71.7612 C.ar      11 UNK        -0.0823 
     11 C11       -77.5443   29.9723  -72.6755 C.ar      11 UNK        -0.0830 
     12 C12       -76.2924   29.3542  -72.6186 C.ar      11 UNK        -0.1021 
     13 C13       -76.0428   28.3277  -71.7027 C.ar      11 UNK        -0.0753 
     14 C14       -77.0444   27.9470  -70.8049 C.ar      11 UNK        -0.0933 
     15 C15       -74.7105   27.5946  -71.7280 C.3       11 UNK         0.0166 
     16 S16       -73.5262   28.1832  -70.4723 S.3       11 UNK        -0.2615 
     17 C17       -73.3557   29.9741  -70.8166 C.3       11 UNK        -0.0865 
     18 CA        -72.3014   30.3467  -71.8938 C.3       10 UNK         0.0862 
     19 C         -70.8375   30.0676  -71.4390 C.2       10 UNK         0.5551 
     20 N         -70.0273   29.3292  -72.1893 N.am      10 UNK        -0.7319 
     21 O         -70.4212   30.5506  -70.3887 O.2       10 UNK        -0.5018 
     22 N         -72.6553   29.7866  -73.2046 N.am      10 UNK        -0.4509 
     23 C         -72.3726   30.3418  -74.3882 C.2       10 UNK         0.4899 
     24 O         -71.8417   31.4462  -74.5152 O.2       10 UNK        -0.4839 
     25 CA        -72.7567   29.5196  -75.6375 C.3       9 UNK         0.0222 
     26 CB        -71.9837   29.9602  -76.8978 C.3       9 UNK        -0.1966 
     27 N         -72.6557   28.0592  -75.4685 N.am      9 UNK        -0.4218 
     28 C         -71.5758   27.3714  -75.0643 C.2       9 UNK         0.5020 
     29 O         -70.5172   27.8997  -74.7216 O.2       9 UNK        -0.5274 
     30 CA        -71.6844   25.8424  -74.9949 C.3       8 UNK         0.0270 
     31 CB        -71.9676   25.3921  -73.5514 C.3       8 UNK        -0.1976 
     32 N         -72.7100   25.2847  -75.8823 N.am      8 UNK        -0.4313 
     33 C         -72.4494   24.7618  -77.0883 C.2       8 UNK         0.5041 
     34 O         -71.3514   24.8327  -77.6428 O.2       8 UNK        -0.5577 
     35 CA        -73.5792   23.9705  -77.7667 C.3       7 UNK         0.0284 
     36 CB        -73.9607   22.7341  -76.9338 C.3       7 UNK        -0.1958 
     37 N         -74.7724   24.7718  -78.0340 N.am      7 UNK        -0.4454 
     38 C         -74.8864   25.6586  -79.0323 C.2       7 UNK         0.5089 
     39 O         -73.9816   25.9230  -79.8246 O.2       7 UNK        -0.5125 
     40 CA        -76.2463   26.3690  -79.1782 C.3       6 UNK         0.0408 
     41 CB        -77.2509   25.4823  -79.9308 C.3       6 UNK        -0.1791 
     42 N         -76.8154   26.7743  -77.8912 N.am      6 UNK        -0.4762 
     43 C         -76.2623   27.6936  -77.0879 C.2       6 UNK         0.5007 
     44 O         -75.2637   28.3436  -77.3921 O.2       6 UNK        -0.5032 
     45 CA        -76.8800   27.8740  -75.6887 C.3       5 UNK         0.0783 
     46 C46       -78.0138   28.9314  -75.6595 C.3       11 UNK        -0.0857 
     47 S47       -77.3306   30.6100  -75.4201 S.3       11 UNK        -0.2512 
     48 C48       -77.8518   31.0433  -73.7201 C.3       11 UNK         0.0225 
     49 N         -77.2836   26.5934  -75.1071 N.am      5 UNK        -0.4615 
     50 C         -76.4150   25.6725  -74.6676 C.2       4 UNK         0.5053 
     51 O         -75.1934   25.8254  -74.6788 O.2       4 UNK        -0.5105 
     52 CA        -76.9995   24.3410  -74.1746 C.3       4 UNK         0.0263 
     53 CB        -77.3482   24.4254  -72.6806 C.3       4 UNK        -0.1981 
     54 N         -78.1754   23.9246  -74.9438 N.am      4 UNK        -0.4224 
     55 C         -78.1361   23.5752  -76.2385 C.2       3 UNK         0.4895 
     56 O         -77.1021   23.5459  -76.9038 O.2       3 UNK        -0.5091 
     57 CA        -79.4711   23.2444  -76.9234 C.3       3 UNK         0.0250 
     58 CB        -79.9070   21.8092  -76.5887 C.3       3 UNK        -0.1996 
     59 N         -80.5479   24.1747  -76.5796 N.am      3 UNK        -0.4254 
     60 C         -80.5476   25.4935  -76.8270 C.2       2 UNK         0.5004 
     61 O         -79.6239   26.0944  -77.3752 O.2       2 UNK        -0.5226 
     62 CA        -81.7503   26.2742  -76.2903 C.3       2 UNK         0.0269 
     63 CB        -83.0558   25.9100  -77.0205 C.3       2 UNK        -0.1926 
     64 N         -81.8487   25.9955  -74.8636 N.am      2 UNK        -0.4687 
     65 C         -82.3845   26.7698  -73.9207 C.2       1 UNK         0.5165 
     66 O         -83.0451   27.7818  -74.1571 O.2       1 UNK        -0.5079 
     67 H67       -82.0429   21.8593  -72.9486 H         1 UNK         0.0900 
     68 H68       -80.9332   22.0913  -71.5950 H         1 UNK         0.0900 
     69 H69       -82.6365   22.5216  -71.4229 H         1 UNK         0.0900 
     70 H70       -82.9744   24.7003  -71.5517 H         1 UNK         0.2959 
     71 H71       -82.8463   26.8510  -71.8474 H         1 UNK         0.1079 
     72 H72       -79.9193   26.6251  -72.7198 H         1 UNK         0.0837 
     73 H73       -80.7578   28.0503  -72.1758 H         1 UNK         0.0837 
     74 H74       -80.1454   28.9461  -69.7722 H         1 UNK         0.0685 
     75 H75       -78.9633   28.0477  -68.8559 H         1 UNK         0.0685 
     76 H76       -79.4970   30.0785  -71.7858 H         1 UNK         0.1434 
     77 H77       -75.5197   29.6564  -73.3109 H         1 UNK         0.1329 
     78 H78       -76.8597   27.1495  -70.0983 H         1 UNK         0.1335 
     79 H79       -74.2653   27.6610  -72.7197 H         1 UNK         0.0680 
     80 H80       -74.8843   26.5308  -71.5607 H         1 UNK         0.0680 
     81 H81       -74.3242   30.3922  -71.0872 H         1 UNK         0.1032 
     82 H82       -73.1052   30.4647  -69.8741 H         1 UNK         0.1032 
     83 H83       -72.3512   31.4331  -71.9895 H         1 UNK         0.0461 
     84 H84       -69.0831   29.1698  -71.8772 H         1 UNK         0.3453 
     85 H85       -70.3359   28.9330  -73.0715 H         1 UNK         0.3453 
     86 H86       -73.0402   28.8558  -73.1894 H         1 UNK         0.2984 
     87 H87       -73.8109   29.7390  -75.8051 H         1 UNK         0.0554 
     88 H88       -72.1459   31.0173  -77.1114 H         1 UNK         0.0847 
     89 H89       -72.3115   29.4023  -77.7752 H         1 UNK         0.0847 
     90 H90       -70.9095   29.8098  -76.7848 H         1 UNK         0.0847 
     91 H91       -73.4756   27.5301  -75.7347 H         1 UNK         0.3141 
     92 H92       -70.7054   25.4443  -75.2709 H         1 UNK         0.0743 
     93 H93       -71.2314   25.8032  -72.8588 H         1 UNK         0.0784 
     94 H94       -72.9508   25.7114  -73.2089 H         1 UNK         0.0784 
     95 H95       -71.9226   24.3066  -73.4626 H         1 UNK         0.0784 
     96 H96       -73.6574   25.2469  -75.5093 H         1 UNK         0.3213 
     97 H97       -73.1947   23.6108  -78.7239 H         1 UNK         0.0855 
     98 H98       -74.4129   23.0072  -75.9800 H         1 UNK         0.0814 
     99 H99       -73.0843   22.1215  -76.7176 H         1 UNK         0.0814 
    100 H100      -74.6719   22.1038  -77.4680 H         1 UNK         0.0814 
    101 H101      -75.6000   24.5570  -77.4828 H         1 UNK         0.3105 
    102 H102      -76.0874   27.2726  -79.7706 H         1 UNK         0.0547 
    103 H103      -78.1972   26.0002  -80.0874 H         1 UNK         0.0837 
    104 H104      -76.8656   25.2046  -80.9127 H         1 UNK         0.0837 
    105 H105      -77.4619   24.5591  -79.3910 H         1 UNK         0.0837 
    106 H106      -77.6768   26.3197  -77.6002 H         1 UNK         0.3020 
    107 H107      -76.0641   28.2354  -75.0625 H         1 UNK         0.1245 
    108 H108      -78.7140   28.7230  -74.8491 H         1 UNK         0.0781 
    109 H109      -78.6119   28.9079  -76.5727 H         1 UNK         0.0781 
    110 H110      -78.9210   31.2604  -73.7411 H         1 UNK         0.0836 
    111 H111      -77.3574   31.9703  -73.4275 H         1 UNK         0.0836 
    112 H112      -78.2678   26.3736  -75.1140 H         1 UNK         0.3022 
    113 H113      -76.2311   23.5755  -74.2994 H         1 UNK         0.0747 
    114 H114      -78.0872   25.2002  -72.4782 H         1 UNK         0.0793 
    115 H115      -77.7474   23.4805  -72.3118 H         1 UNK         0.0793 
    116 H116      -76.4638   24.6583  -72.0867 H         1 UNK         0.0793 
    117 H117      -79.0679   23.9200  -74.4503 H         1 UNK         0.3047 
    118 H118      -79.3116   23.3112  -78.0016 H         1 UNK         0.0822 
    119 H119      -79.1243   21.0938  -76.8457 H         1 UNK         0.0807 
    120 H120      -80.7991   21.5247  -77.1470 H         1 UNK         0.0807 
    121 H121      -80.1227   21.6893  -75.5259 H         1 UNK         0.0807 
    122 H122      -81.3469   23.7766  -76.1081 H         1 UNK         0.2946 
    123 H123      -81.5484   27.3385  -76.4331 H         1 UNK         0.1144 
    124 H124      -83.8850   26.5282  -76.6761 H         1 UNK         0.0793 
    125 H125      -83.3339   24.8669  -76.8669 H         1 UNK         0.0793 
    126 H126      -82.9583   26.0699  -78.0951 H         1 UNK         0.0793 
    127 H127      -81.2984   25.2087  -74.5207 H         1 UNK         0.2896 
@<TRIPOS>BOND
     1    1    2 1    
     2    1   67 1    
     3    1   68 1    
     4    1   69 1    
     5    2    3 2    
     6    2    4 am   BACKBONE|DICT|INTERRES
     7    4    5 1    
     8    4   70 1    
     9    5    6 1    
    10    5   65 1    
    11    5   71 1    
    12    6    7 1    
    13    6   72 1    
    14    6   73 1    
    15    7    8 1    
    16    8    9 1    
    17    8   74 1    
    18    8   75 1    
    19    9   10 ar   
    20    9   14 ar   
    21   10   11 ar   
    22   10   76 1    
    23   11   12 ar   
    24   11   48 1    
    25   12   13 ar   
    26   12   77 1    
    27   13   14 ar   
    28   13   15 1    
    29   14   78 1    
    30   15   16 1    
    31   15   79 1    
    32   15   80 1    
    33   16   17 1    
    34   17   18 1    
    35   17   81 1    
    36   17   82 1    
    37   18   19 1    
    38   18   22 1    
    39   18   83 1    
    40   19   20 am   BACKBONE|DICT|INTERRES
    41   19   21 2    
    42   20   84 1    
    43   20   85 1    
    44   22   23 am   BACKBONE|DICT|INTERRES
    45   22   86 1    
    46   23   24 2    
    47   23   25 1    
    48   25   26 1    
    49   25   27 1    
    50   25   87 1    
    51   26   88 1    
    52   26   89 1    
    53   26   90 1    
    54   27   28 am   BACKBONE|DICT|INTERRES
    55   27   91 1    
    56   28   29 2    
    57   28   30 1    
    58   30   31 1    
    59   30   32 1    
    60   30   92 1    
    61   31   93 1    
    62   31   94 1    
    63   31   95 1    
    64   32   33 am   BACKBONE|DICT|INTERRES
    65   32   96 1    
    66   33   34 2    
    67   33   35 1    
    68   35   36 1    
    69   35   37 1    
    70   35   97 1    
    71   36   98 1    
    72   36   99 1    
    73   36  100 1    
    74   37   38 am   BACKBONE|DICT|INTERRES
    75   37  101 1    
    76   38   39 2    
    77   38   40 1    
    78   40   41 1    
    79   40   42 1    
    80   40  102 1    
    81   41  103 1    
    82   41  104 1    
    83   41  105 1    
    84   42   43 am   BACKBONE|DICT|INTERRES
    85   42  106 1    
    86   43   44 2    
    87   43   45 1    
    88   45   46 1    
    89   45   49 1    
    90   45  107 1    
    91   46   47 1    
    92   46  108 1    
    93   46  109 1    
    94   47   48 1    
    95   48  110 1    
    96   48  111 1    
    97   49   50 am   BACKBONE|DICT|INTERRES
    98   49  112 1    
    99   50   51 2    
   100   50   52 1    
   101   52   53 1    
   102   52   54 1    
   103   52  113 1    
   104   53  114 1    
   105   53  115 1    
   106   53  116 1    
   107   54   55 am   BACKBONE|DICT|INTERRES
   108   54  117 1    
   109   55   56 2    
   110   55   57 1    
   111   57   58 1    
   112   57   59 1    
   113   57  118 1    
   114   58  119 1    
   115   58  120 1    
   116   58  121 1    
   117   59   60 am   BACKBONE|DICT|INTERRES
   118   59  122 1    
   119   60   61 2    
   120   60   62 1    
   121   62   63 1    
   122   62   64 1    
   123   62  123 1    
   124   63  124 1    
   125   63  125 1    
   126   63  126 1    
   127   64   65 am   BACKBONE|DICT|INTERRES
   128   64  127 1    
   129   65   66 2    
@<TRIPOS>SUBSTRUCTURE
     1 UNK         1 GROUP             0       ****    0 ROOT    
