@<TRIPOS>MOLECULE
3R135
127   129    1
SMALL
USER_CHARGES


@<TRIPOS>ATOM
      1 CA        -84.0716   26.6116  -70.8519 C.3       0 UNK        -0.1998 
      2 C         -83.7658   26.8911  -72.3159 C.2       0 UNK         0.4909 
      3 O         -84.6886   27.0076  -73.1234 O.2       0 UNK        -0.5240 
      4 N         -82.4781   27.0070  -72.6616 N.am      1 UNK        -0.4739 
      5 CA        -81.9998   27.2094  -74.0323 C.3       1 UNK         0.0864 
      6 C6        -80.5503   27.7550  -74.0569 C.3       11 UNK        -0.0881 
      7 S7        -80.4972   29.5313  -73.6489 S.3       11 UNK        -0.2682 
      8 C8        -80.0535   29.5281  -71.8822 C.3       11 UNK         0.0289 
      9 C9        -78.5736   29.2623  -71.6329 C.ar      11 UNK        -0.0687 
     10 C10       -78.1738   28.1786  -70.8449 C.ar      11 UNK        -0.0823 
     11 C11       -76.8239   27.9847  -70.5323 C.ar      11 UNK        -0.0830 
     12 C12       -75.8667   28.8671  -71.0444 C.ar      11 UNK        -0.1021 
     13 C13       -76.2503   29.9513  -71.8413 C.ar      11 UNK        -0.0753 
     14 C14       -77.6069   30.1467  -72.1220 C.ar      11 UNK        -0.0933 
     15 C15       -75.2065   30.9436  -72.3413 C.3       11 UNK         0.0166 
     16 S16       -75.2533   31.1531  -74.1496 S.3       11 UNK        -0.2615 
     17 C17       -73.7894   32.2034  -74.4360 C.3       11 UNK        -0.0865 
     18 CA        -72.6300   31.4366  -75.1274 C.3       10 UNK         0.0862 
     19 C         -71.5057   32.4196  -75.5704 C.2       10 UNK         0.5551 
     20 N         -70.2898   32.3247  -75.0456 N.am      10 UNK        -0.7319 
     21 O         -71.7437   33.2845  -76.4099 O.2       10 UNK        -0.5018 
     22 N         -72.1691   30.2975  -74.3141 N.am      10 UNK        -0.4509 
     23 C         -71.4827   29.2460  -74.7794 C.2       10 UNK         0.4899 
     24 O         -71.1470   29.1207  -75.9579 O.2       10 UNK        -0.4839 
     25 CA        -71.0778   28.1635  -73.7607 C.3       9 UNK         0.0222 
     26 CB        -71.6977   28.3522  -72.3586 C.3       9 UNK        -0.1966 
     27 N         -71.4608   26.8498  -74.2739 N.am      9 UNK        -0.4218 
     28 C         -70.6425   25.9739  -74.8714 C.2       9 UNK         0.5020 
     29 O         -69.4292   26.1414  -75.0079 O.2       9 UNK        -0.5274 
     30 CA        -71.2860   24.6808  -75.4031 C.3       8 UNK         0.0270 
     31 CB        -71.5854   23.7048  -74.2528 C.3       8 UNK        -0.1976 
     32 N         -72.5119   24.9290  -76.1639 N.am      8 UNK        -0.4313 
     33 C         -72.5639   25.5266  -77.3636 C.2       8 UNK         0.5041 
     34 O         -71.5700   25.8764  -78.0009 O.2       8 UNK        -0.5577 
     35 CA        -73.9608   25.7805  -77.9533 C.3       7 UNK         0.0284 
     36 CB        -74.4867   24.5418  -78.6968 C.3       7 UNK        -0.1958 
     37 N         -74.9078   26.1775  -76.9103 N.am      7 UNK        -0.4454 
     38 C         -75.0455   27.4355  -76.4682 C.2       7 UNK         0.5089 
     39 O         -74.4957   28.4048  -76.9902 O.2       7 UNK        -0.5125 
     40 CA        -75.9401   27.6610  -75.2370 C.3       6 UNK         0.0408 
     41 CB        -77.2825   28.2850  -75.6392 C.3       6 UNK        -0.1791 
     42 N         -76.1742   26.4507  -74.4462 N.am      6 UNK        -0.4762 
     43 C         -75.2500   25.9087  -73.6400 C.2       6 UNK         0.5007 
     44 O         -74.1100   26.3553  -73.5251 O.2       6 UNK        -0.5032 
     45 CA        -75.6229   24.6031  -72.9050 C.3       5 UNK         0.0783 
     46 C46       -76.3657   24.8751  -71.5759 C.3       11 UNK        -0.0857 
     47 S47       -75.2916   25.6454  -70.3196 S.3       11 UNK        -0.2512 
     48 C48       -76.4138   26.8704  -69.5746 C.3       11 UNK         0.0225 
     49 N         -76.3839   23.6813  -73.7509 N.am      5 UNK        -0.4615 
     50 C         -75.9895   23.2118  -74.9407 C.2       4 UNK         0.5053 
     51 O         -74.8987   23.4726  -75.4488 O.2       4 UNK        -0.5105 
     52 CA        -77.0022   22.3650  -75.7304 C.3       4 UNK         0.0263 
     53 CB        -78.0925   21.7148  -74.8484 C.3       4 UNK        -0.1981 
     54 N         -77.6227   23.1311  -76.8185 N.am      4 UNK        -0.4224 
     55 C         -78.2779   24.2995  -76.7221 C.2       3 UNK         0.4895 
     56 O         -78.3901   24.9473  -75.6786 O.2       3 UNK        -0.5091 
     57 CA        -78.9185   24.8671  -78.0027 C.3       3 UNK         0.0250 
     58 CB        -78.7360   23.9936  -79.2667 C.3       3 UNK        -0.1996 
     59 N         -80.3337   25.1788  -77.7703 N.am      3 UNK        -0.4254 
     60 C         -81.3107   24.3147  -77.4486 C.2       2 UNK         0.5004 
     61 O         -81.1705   23.0908  -77.4036 O.2       2 UNK        -0.5226 
     62 CA        -82.6711   24.9518  -77.1052 C.3       2 UNK         0.0269 
     63 CB        -83.7400   23.9198  -76.6824 C.3       2 UNK        -0.1926 
     64 N         -82.5411   26.0203  -76.1028 N.am      2 UNK        -0.4687 
     65 C         -82.1076   25.8989  -74.8369 C.2       1 UNK         0.5165 
     66 O         -81.7819   24.8333  -74.3081 O.2       1 UNK        -0.5079 
     67 H67       -83.1652   26.5506  -70.2499 H         1 UNK         0.0900 
     68 H68       -84.6075   25.6678  -70.7546 H         1 UNK         0.0900 
     69 H69       -84.6979   27.4033  -70.4417 H         1 UNK         0.0900 
     70 H70       -81.7625   26.8561  -71.9667 H         1 UNK         0.2959 
     71 H71       -82.6527   27.9445  -74.5094 H         1 UNK         0.1079 
     72 H72       -80.1224   27.6542  -75.0561 H         1 UNK         0.0837 
     73 H73       -79.8942   27.1872  -73.3941 H         1 UNK         0.0837 
     74 H74       -80.3006   30.5057  -71.4661 H         1 UNK         0.0685 
     75 H75       -80.6791   28.8097  -71.3517 H         1 UNK         0.0685 
     76 H76       -78.9193   27.5090  -70.4385 H         1 UNK         0.1434 
     77 H77       -74.8243   28.7199  -70.7969 H         1 UNK         0.1329 
     78 H78       -77.9131   30.9968  -72.7162 H         1 UNK         0.1335 
     79 H79       -75.3783   31.9095  -71.8643 H         1 UNK         0.0680 
     80 H80       -74.2063   30.6235  -72.0472 H         1 UNK         0.0680 
     81 H81       -73.4539   32.6464  -73.4965 H         1 UNK         0.1032 
     82 H82       -74.1160   33.0390  -75.0583 H         1 UNK         0.1032 
     83 H83       -73.0309   31.0199  -76.0540 H         1 UNK         0.0461 
     84 H84       -70.0834   31.6157  -74.3611 H         1 UNK         0.3453 
     85 H85       -69.5709   32.9653  -75.3435 H         1 UNK         0.3453 
     86 H86       -72.3979   30.3301  -73.3332 H         1 UNK         0.2984 
     87 H87       -69.9931   28.2199  -73.6520 H         1 UNK         0.0554 
     88 H88       -71.4115   27.5368  -71.6939 H         1 UNK         0.0847 
     89 H89       -72.7878   28.3753  -72.3912 H         1 UNK         0.0847 
     90 H90       -71.3534   29.2746  -71.8895 H         1 UNK         0.0847 
     91 H91       -72.4489   26.6161  -74.1823 H         1 UNK         0.3141 
     92 H92       -70.5686   24.2027  -76.0734 H         1 UNK         0.0743 
     93 H93       -72.3071   24.1183  -73.5478 H         1 UNK         0.0784 
     94 H94       -71.9863   22.7624  -74.6267 H         1 UNK         0.0784 
     95 H95       -70.6784   23.4730  -73.6929 H         1 UNK         0.0784 
     96 H96       -73.3787   24.5862  -75.7585 H         1 UNK         0.3213 
     97 H97       -73.8701   26.5888  -78.6827 H         1 UNK         0.0855 
     98 H98       -73.7997   24.2482  -79.4916 H         1 UNK         0.0814 
     99 H99       -75.4503   24.7438  -79.1628 H         1 UNK         0.0814 
    100 H100      -74.6037   23.6820  -78.0376 H         1 UNK         0.0814 
    101 H101      -75.3597   25.4347  -76.3938 H         1 UNK         0.3105 
    102 H102      -75.4192   28.3737  -74.5971 H         1 UNK         0.0547 
    103 H103      -77.1315   29.1918  -76.2262 H         1 UNK         0.0837 
    104 H104      -77.8882   27.6031  -76.2355 H         1 UNK         0.0837 
    105 H105      -77.8514   28.5707  -74.7557 H         1 UNK         0.0837 
    106 H106      -77.0651   25.9786  -74.5748 H         1 UNK         0.3020 
    107 H107      -74.6845   24.0961  -72.6697 H         1 UNK         0.1245 
    108 H108      -76.7267   23.9371  -71.1511 H         1 UNK         0.0781 
    109 H109      -77.2532   25.4861  -71.7496 H         1 UNK         0.0781 
    110 H110      -75.9158   27.3176  -68.7132 H         1 UNK         0.0836 
    111 H111      -77.2888   26.3513  -69.1802 H         1 UNK         0.0836 
    112 H112      -77.3178   23.4542  -73.4425 H         1 UNK         0.3022 
    113 H113      -76.4294   21.5615  -76.1961 H         1 UNK         0.0747 
    114 H114      -78.6970   21.0197  -75.4315 H         1 UNK         0.0793 
    115 H115      -77.6520   21.1442  -74.0295 H         1 UNK         0.0793 
    116 H116      -78.7737   22.4499  -74.4175 H         1 UNK         0.0793 
    117 H117      -77.5753   22.7002  -77.7309 H         1 UNK         0.3047 
    118 H118      -78.4194   25.8194  -78.1889 H         1 UNK         0.0822 
    119 H119      -79.2002   24.4645  -80.1333 H         1 UNK         0.0807 
    120 H120      -79.1804   23.0037  -79.1577 H         1 UNK         0.0807 
    121 H121      -77.6819   23.8595  -79.5102 H         1 UNK         0.0807 
    122 H122      -80.5582   26.1632  -77.7444 H         1 UNK         0.2946 
    123 H123      -83.0239   25.4236  -78.0241 H         1 UNK         0.1144 
    124 H124      -83.9164   23.1950  -77.4782 H         1 UNK         0.0793 
    125 H125      -84.6935   24.4018  -76.4667 H         1 UNK         0.0793 
    126 H126      -83.4398   23.3591  -75.7968 H         1 UNK         0.0793 
    127 H127      -82.7839   26.9455  -76.4312 H         1 UNK         0.2896 
@<TRIPOS>BOND
     1    1    2 1    
     2    1   67 1    
     3    1   68 1    
     4    1   69 1    
     5    2    3 2    
     6    2    4 am   BACKBONE|DICT|INTERRES
     7    4    5 1    
     8    4   70 1    
     9    5    6 1    
    10    5   65 1    
    11    5   71 1    
    12    6    7 1    
    13    6   72 1    
    14    6   73 1    
    15    7    8 1    
    16    8    9 1    
    17    8   74 1    
    18    8   75 1    
    19    9   10 ar   
    20    9   14 ar   
    21   10   11 ar   
    22   10   76 1    
    23   11   12 ar   
    24   11   48 1    
    25   12   13 ar   
    26   12   77 1    
    27   13   14 ar   
    28   13   15 1    
    29   14   78 1    
    30   15   16 1    
    31   15   79 1    
    32   15   80 1    
    33   16   17 1    
    34   17   18 1    
    35   17   81 1    
    36   17   82 1    
    37   18   19 1    
    38   18   22 1    
    39   18   83 1    
    40   19   20 am   BACKBONE|DICT|INTERRES
    41   19   21 2    
    42   20   84 1    
    43   20   85 1    
    44   22   23 am   BACKBONE|DICT|INTERRES
    45   22   86 1    
    46   23   24 2    
    47   23   25 1    
    48   25   26 1    
    49   25   27 1    
    50   25   87 1    
    51   26   88 1    
    52   26   89 1    
    53   26   90 1    
    54   27   28 am   BACKBONE|DICT|INTERRES
    55   27   91 1    
    56   28   29 2    
    57   28   30 1    
    58   30   31 1    
    59   30   32 1    
    60   30   92 1    
    61   31   93 1    
    62   31   94 1    
    63   31   95 1    
    64   32   33 am   BACKBONE|DICT|INTERRES
    65   32   96 1    
    66   33   34 2    
    67   33   35 1    
    68   35   36 1    
    69   35   37 1    
    70   35   97 1    
    71   36   98 1    
    72   36   99 1    
    73   36  100 1    
    74   37   38 am   BACKBONE|DICT|INTERRES
    75   37  101 1    
    76   38   39 2    
    77   38   40 1    
    78   40   41 1    
    79   40   42 1    
    80   40  102 1    
    81   41  103 1    
    82   41  104 1    
    83   41  105 1    
    84   42   43 am   BACKBONE|DICT|INTERRES
    85   42  106 1    
    86   43   44 2    
    87   43   45 1    
    88   45   46 1    
    89   45   49 1    
    90   45  107 1    
    91   46   47 1    
    92   46  108 1    
    93   46  109 1    
    94   47   48 1    
    95   48  110 1    
    96   48  111 1    
    97   49   50 am   BACKBONE|DICT|INTERRES
    98   49  112 1    
    99   50   51 2    
   100   50   52 1    
   101   52   53 1    
   102   52   54 1    
   103   52  113 1    
   104   53  114 1    
   105   53  115 1    
   106   53  116 1    
   107   54   55 am   BACKBONE|DICT|INTERRES
   108   54  117 1    
   109   55   56 2    
   110   55   57 1    
   111   57   58 1    
   112   57   59 1    
   113   57  118 1    
   114   58  119 1    
   115   58  120 1    
   116   58  121 1    
   117   59   60 am   BACKBONE|DICT|INTERRES
   118   59  122 1    
   119   60   61 2    
   120   60   62 1    
   121   62   63 1    
   122   62   64 1    
   123   62  123 1    
   124   63  124 1    
   125   63  125 1    
   126   63  126 1    
   127   64   65 am   BACKBONE|DICT|INTERRES
   128   64  127 1    
   129   65   66 2    
@<TRIPOS>SUBSTRUCTURE
     1 UNK         1 GROUP             0       ****    0 ROOT    
