@<TRIPOS>MOLECULE
3R135
127   129    1
SMALL
USER_CHARGES


@<TRIPOS>ATOM
      1 CA        -84.3450   24.3982  -72.1334 C.3       0 UNK        -0.1998 
      2 C         -83.7421   25.6148  -72.8188 C.2       0 UNK         0.4909 
      3 O         -83.9029   25.7804  -74.0288 O.2       0 UNK        -0.5240 
      4 N         -83.0538   26.4749  -72.0580 N.am      1 UNK        -0.4739 
      5 CA        -82.3279   27.6368  -72.5772 C.3       1 UNK         0.0864 
      6 C6        -81.9888   28.6687  -71.4689 C.3       11 UNK        -0.0881 
      7 S7        -81.1423   27.9796  -70.0005 S.3       11 UNK        -0.2682 
      8 C8        -79.7030   29.0839  -69.8307 C.3       11 UNK         0.0289 
      9 C9        -78.6328   28.7982  -70.8741 C.ar      11 UNK        -0.0687 
     10 C10       -77.8006   27.6834  -70.7321 C.ar      11 UNK        -0.0823 
     11 C11       -76.8133   27.4100  -71.6824 C.ar      11 UNK        -0.0830 
     12 C12       -76.6654   28.2582  -72.7826 C.ar      11 UNK        -0.1021 
     13 C13       -77.4675   29.3951  -72.9194 C.ar      11 UNK        -0.0753 
     14 C14       -78.4546   29.6568  -71.9641 C.ar      11 UNK        -0.0933 
     15 C15       -77.2646   30.3419  -74.0949 C.3       11 UNK         0.0166 
     16 S16       -75.9271   31.5410  -73.7786 S.3       11 UNK        -0.2615 
     17 C17       -74.4625   30.4586  -73.8687 C.3       11 UNK        -0.0865 
     18 CA        -73.1515   31.1974  -74.2505 C.3       10 UNK         0.0862 
     19 C         -72.4106   31.7341  -72.9876 C.2       10 UNK         0.5551 
     20 N         -71.2907   31.1475  -72.5768 N.am      10 UNK        -0.7319 
     21 O         -72.8553   32.7017  -72.3758 O.2       10 UNK        -0.5018 
     22 N         -72.3349   30.3406  -75.1201 N.am      10 UNK        -0.4509 
     23 C         -71.2512   30.7116  -75.8116 C.2       10 UNK         0.4899 
     24 O         -70.8495   31.8733  -75.8896 O.2       10 UNK        -0.4839 
     25 CA        -70.4985   29.5806  -76.5407 C.3       9 UNK         0.0222 
     26 CB        -68.9860   29.8587  -76.6721 C.3       9 UNK        -0.1966 
     27 N         -70.7501   28.2502  -75.9632 N.am      9 UNK        -0.4218 
     28 C         -70.4153   27.8078  -74.7380 C.2       9 UNK         0.5020 
     29 O         -69.8187   28.4999  -73.9113 O.2       9 UNK        -0.5274 
     30 CA        -70.8619   26.3856  -74.3269 C.3       8 UNK         0.0270 
     31 CB        -71.7187   26.4392  -73.0488 C.3       8 UNK        -0.1976 
     32 N         -71.6162   25.6710  -75.3619 N.am      8 UNK        -0.4313 
     33 C         -71.0952   25.1479  -76.4828 C.2       8 UNK         0.5041 
     34 O         -69.8864   25.1042  -76.7122 O.2       8 UNK        -0.5577 
     35 CA        -72.0793   24.6337  -77.5555 C.3       7 UNK         0.0284 
     36 CB        -72.1712   23.0999  -77.5069 C.3       7 UNK        -0.1958 
     37 N         -73.4312   25.1959  -77.4532 N.am      7 UNK        -0.4454 
     38 C         -73.7511   26.4980  -77.4887 C.2       7 UNK         0.5089 
     39 O         -72.9383   27.3911  -77.7277 O.2       7 UNK        -0.5125 
     40 CA        -75.2008   26.8796  -77.1279 C.3       6 UNK         0.0408 
     41 CB        -75.9866   27.2174  -78.4038 C.3       6 UNK        -0.1791 
     42 N         -75.9461   25.8700  -76.3613 N.am      6 UNK        -0.4762 
     43 C         -75.5794   25.3097  -75.1948 C.2       6 UNK         0.5007 
     44 O         -74.5209   25.5799  -74.6265 O.2       6 UNK        -0.5032 
     45 CA        -76.5107   24.2354  -74.5959 C.3       5 UNK         0.0783 
     46 C46       -77.4159   24.8127  -73.4784 C.3       11 UNK        -0.0857 
     47 S47       -76.7213   24.6193  -71.8033 S.3       11 UNK        -0.2512 
     48 C48       -75.8876   26.2131  -71.5143 C.3       11 UNK         0.0225 
     49 N         -77.3253   23.6165  -75.6442 N.am      5 UNK        -0.4615 
     50 C         -77.3205   22.3212  -75.9792 C.2       4 UNK         0.5053 
     51 O         -76.5587   21.4929  -75.4784 O.2       4 UNK        -0.5105 
     52 CA        -78.3212   21.8719  -77.0681 C.3       4 UNK         0.0263 
     53 CB        -78.8715   20.4524  -76.8119 C.3       4 UNK        -0.1981 
     54 N         -79.4143   22.8272  -77.3094 N.am      4 UNK        -0.4224 
     55 C         -80.3678   23.2144  -76.4474 C.2       3 UNK         0.4895 
     56 O         -80.5138   22.7573  -75.3126 O.2       3 UNK        -0.5091 
     57 CA        -81.2818   24.3551  -76.9289 C.3       3 UNK         0.0250 
     58 CB        -82.7649   23.9858  -76.7587 C.3       3 UNK        -0.1996 
     59 N         -81.0090   25.6155  -76.2292 N.am      3 UNK        -0.4254 
     60 C         -79.8271   26.2521  -76.1947 C.2       2 UNK         0.5004 
     61 O         -78.8098   25.8292  -76.7488 O.2       2 UNK        -0.5226 
     62 CA        -79.7479   27.5959  -75.4434 C.3       2 UNK         0.0269 
     63 CB        -79.6566   28.7554  -76.4484 C.3       2 UNK        -0.1926 
     64 N         -80.8634   27.8575  -74.5290 N.am      2 UNK        -0.4687 
     65 C         -81.0910   27.1940  -73.3874 C.2       1 UNK         0.5165 
     66 O         -80.3883   26.2654  -72.9855 O.2       1 UNK        -0.5079 
     67 H67       -83.9398   23.4853  -72.5692 H         1 UNK         0.0900 
     68 H68       -84.1338   24.3871  -71.0642 H         1 UNK         0.0900 
     69 H69       -85.4264   24.3897  -72.2664 H         1 UNK         0.0900 
     70 H70       -82.9113   26.2835  -71.0762 H         1 UNK         0.2959 
     71 H71       -83.0035   28.1397  -73.2734 H         1 UNK         0.1079 
     72 H72       -81.4072   29.4928  -71.8849 H         1 UNK         0.0837 
     73 H73       -82.9151   29.1250  -71.1164 H         1 UNK         0.0837 
     74 H74       -80.0310   30.1234  -69.8804 H         1 UNK         0.0685 
     75 H75       -79.2761   28.9494  -68.8358 H         1 UNK         0.0685 
     76 H76       -77.9272   27.0228  -69.8852 H         1 UNK         0.1434 
     77 H77       -75.9110   28.0377  -73.5241 H         1 UNK         0.1329 
     78 H78       -79.0802   30.5326  -72.0672 H         1 UNK         0.1335 
     79 H79       -77.0527   29.7774  -75.0043 H         1 UNK         0.0680 
     80 H80       -78.1843   30.8954  -74.2893 H         1 UNK         0.0680 
     81 H81       -74.3548   29.9171  -72.9265 H         1 UNK         0.1032 
     82 H82       -74.6859   29.6994  -74.6194 H         1 UNK         0.1032 
     83 H83       -73.4084   32.0714  -74.8523 H         1 UNK         0.0461 
     84 H84       -70.9032   30.3594  -73.0779 H         1 UNK         0.3453 
     85 H85       -70.8180   31.5058  -71.7624 H         1 UNK         0.3453 
     86 H86       -72.5693   29.3604  -75.1263 H         1 UNK         0.2984 
     87 H87       -70.9138   29.5483  -77.5489 H         1 UNK         0.0554 
     88 H88       -68.8040   30.7693  -77.2441 H         1 UNK         0.0847 
     89 H89       -68.4766   29.0460  -77.1899 H         1 UNK         0.0847 
     90 H90       -68.5102   29.9883  -75.6997 H         1 UNK         0.0847 
     91 H91       -71.3022   27.6368  -76.5550 H         1 UNK         0.3141 
     92 H92       -69.9566   25.8156  -74.1084 H         1 UNK         0.0743 
     93 H93       -71.1641   26.8821  -72.2203 H         1 UNK         0.0784 
     94 H94       -72.6205   27.0357  -73.1927 H         1 UNK         0.0784 
     95 H95       -72.0256   25.4418  -72.7331 H         1 UNK         0.0784 
     96 H96       -72.6245   25.6360  -75.2333 H         1 UNK         0.3213 
     97 H97       -71.6767   24.9256  -78.5277 H         1 UNK         0.0855 
     98 H98       -72.5954   22.7505  -76.5646 H         1 UNK         0.0814 
     99 H99       -71.1839   22.6464  -77.6075 H         1 UNK         0.0814 
    100 H100      -72.7868   22.7117  -78.3186 H         1 UNK         0.0814 
    101 H101      -74.1751   24.5459  -77.2463 H         1 UNK         0.3105 
    102 H102      -75.1507   27.7776  -76.5092 H         1 UNK         0.0547 
    103 H103      -76.9869   27.5806  -78.1726 H         1 UNK         0.0837 
    104 H104      -75.4856   27.9981  -78.9781 H         1 UNK         0.0837 
    105 H105      -76.0900   26.3484  -79.0547 H         1 UNK         0.0837 
    106 H106      -76.8673   25.6445  -76.7234 H         1 UNK         0.3020 
    107 H107      -75.8558   23.4774  -74.1600 H         1 UNK         0.1245 
    108 H108      -78.3647   24.2725  -73.4548 H         1 UNK         0.0781 
    109 H109      -77.7006   25.8460  -73.6716 H         1 UNK         0.0781 
    110 H110      -75.0247   26.2939  -72.1755 H         1 UNK         0.0836 
    111 H111      -75.4841   26.2153  -70.5009 H         1 UNK         0.0836 
    112 H112      -77.9869   24.2313  -76.1091 H         1 UNK         0.3022 
    113 H113      -77.7478   21.8357  -77.9956 H         1 UNK         0.0747 
    114 H114      -79.5664   20.1485  -77.5946 H         1 UNK         0.0793 
    115 H115      -78.0663   19.7169  -76.7936 H         1 UNK         0.0793 
    116 H116      -79.3916   20.3852  -75.8560 H         1 UNK         0.0793 
    117 H117      -79.3756   23.2993  -78.2029 H         1 UNK         0.3047 
    118 H118      -81.1013   24.5279  -77.9919 H         1 UNK         0.0822 
    119 H119      -83.0044   23.0723  -77.3045 H         1 UNK         0.0807 
    120 H120      -83.4185   24.7716  -77.1381 H         1 UNK         0.0807 
    121 H121      -83.0204   23.8152  -75.7121 H         1 UNK         0.0807 
    122 H122      -81.7779   26.0145  -75.7090 H         1 UNK         0.2946 
    123 H123      -78.8296   27.5794  -74.8535 H         1 UNK         0.1144 
    124 H124      -79.5756   29.7180  -75.9446 H         1 UNK         0.0793 
    125 H125      -80.5301   28.7930  -77.1006 H         1 UNK         0.0793 
    126 H126      -78.7791   28.6527  -77.0866 H         1 UNK         0.0793 
    127 H127      -81.4952   28.5985  -74.7981 H         1 UNK         0.2896 
@<TRIPOS>BOND
     1    1    2 1    
     2    1   67 1    
     3    1   68 1    
     4    1   69 1    
     5    2    3 2    
     6    2    4 am   BACKBONE|DICT|INTERRES
     7    4    5 1    
     8    4   70 1    
     9    5    6 1    
    10    5   65 1    
    11    5   71 1    
    12    6    7 1    
    13    6   72 1    
    14    6   73 1    
    15    7    8 1    
    16    8    9 1    
    17    8   74 1    
    18    8   75 1    
    19    9   10 ar   
    20    9   14 ar   
    21   10   11 ar   
    22   10   76 1    
    23   11   12 ar   
    24   11   48 1    
    25   12   13 ar   
    26   12   77 1    
    27   13   14 ar   
    28   13   15 1    
    29   14   78 1    
    30   15   16 1    
    31   15   79 1    
    32   15   80 1    
    33   16   17 1    
    34   17   18 1    
    35   17   81 1    
    36   17   82 1    
    37   18   19 1    
    38   18   22 1    
    39   18   83 1    
    40   19   20 am   BACKBONE|DICT|INTERRES
    41   19   21 2    
    42   20   84 1    
    43   20   85 1    
    44   22   23 am   BACKBONE|DICT|INTERRES
    45   22   86 1    
    46   23   24 2    
    47   23   25 1    
    48   25   26 1    
    49   25   27 1    
    50   25   87 1    
    51   26   88 1    
    52   26   89 1    
    53   26   90 1    
    54   27   28 am   BACKBONE|DICT|INTERRES
    55   27   91 1    
    56   28   29 2    
    57   28   30 1    
    58   30   31 1    
    59   30   32 1    
    60   30   92 1    
    61   31   93 1    
    62   31   94 1    
    63   31   95 1    
    64   32   33 am   BACKBONE|DICT|INTERRES
    65   32   96 1    
    66   33   34 2    
    67   33   35 1    
    68   35   36 1    
    69   35   37 1    
    70   35   97 1    
    71   36   98 1    
    72   36   99 1    
    73   36  100 1    
    74   37   38 am   BACKBONE|DICT|INTERRES
    75   37  101 1    
    76   38   39 2    
    77   38   40 1    
    78   40   41 1    
    79   40   42 1    
    80   40  102 1    
    81   41  103 1    
    82   41  104 1    
    83   41  105 1    
    84   42   43 am   BACKBONE|DICT|INTERRES
    85   42  106 1    
    86   43   44 2    
    87   43   45 1    
    88   45   46 1    
    89   45   49 1    
    90   45  107 1    
    91   46   47 1    
    92   46  108 1    
    93   46  109 1    
    94   47   48 1    
    95   48  110 1    
    96   48  111 1    
    97   49   50 am   BACKBONE|DICT|INTERRES
    98   49  112 1    
    99   50   51 2    
   100   50   52 1    
   101   52   53 1    
   102   52   54 1    
   103   52  113 1    
   104   53  114 1    
   105   53  115 1    
   106   53  116 1    
   107   54   55 am   BACKBONE|DICT|INTERRES
   108   54  117 1    
   109   55   56 2    
   110   55   57 1    
   111   57   58 1    
   112   57   59 1    
   113   57  118 1    
   114   58  119 1    
   115   58  120 1    
   116   58  121 1    
   117   59   60 am   BACKBONE|DICT|INTERRES
   118   59  122 1    
   119   60   61 2    
   120   60   62 1    
   121   62   63 1    
   122   62   64 1    
   123   62  123 1    
   124   63  124 1    
   125   63  125 1    
   126   63  126 1    
   127   64   65 am   BACKBONE|DICT|INTERRES
   128   64  127 1    
   129   65   66 2    
@<TRIPOS>SUBSTRUCTURE
     1 UNK         1 GROUP             0       ****    0 ROOT    
