@<TRIPOS>MOLECULE
3R135
127   129    1
SMALL
USER_CHARGES


@<TRIPOS>ATOM
      1 CA        -78.2429   30.5205  -76.1642 C.3       0 UNK        -0.1998 
      2 C         -79.4288   29.9093  -75.4303 C.2       0 UNK         0.4909 
      3 O         -80.5350   30.4445  -75.5068 O.2       0 UNK        -0.5240 
      4 N         -79.1967   28.7994  -74.7159 N.am      1 UNK        -0.4739 
      5 CA        -80.1916   28.0045  -73.9846 C.3       1 UNK         0.0864 
      6 C6        -80.9419   28.8142  -72.8848 C.3       11 UNK        -0.0881 
      7 S7        -81.2272   27.8304  -71.3727 S.3       11 UNK        -0.2682 
      8 C8        -79.9269   28.4633  -70.2614 C.3       11 UNK         0.0289 
      9 C9        -78.5404   27.9887  -70.6756 C.ar      11 UNK        -0.0687 
     10 C10       -78.0294   26.7841  -70.1821 C.ar      11 UNK        -0.0823 
     11 C11       -76.7566   26.3396  -70.5584 C.ar      11 UNK        -0.0830 
     12 C12       -75.9939   27.1196  -71.4354 C.ar      11 UNK        -0.1021 
     13 C13       -76.5085   28.3058  -71.9624 C.ar      11 UNK        -0.0753 
     14 C14       -77.7694   28.7493  -71.5585 C.ar      11 UNK        -0.0933 
     15 C15       -75.7496   29.0617  -73.0377 C.3       11 UNK         0.0166 
     16 S16       -74.7933   30.4655  -72.3959 S.3       11 UNK        -0.2615 
     17 C17       -74.6897   31.5299  -73.8828 C.3       11 UNK        -0.0865 
     18 CA        -74.2349   30.8052  -75.1872 C.3       10 UNK         0.0862 
     19 C         -74.4039   31.6574  -76.4737 C.2       10 UNK         0.5551 
     20 N         -74.2776   31.0310  -77.6363 N.am      10 UNK        -0.7319 
     21 O         -74.6517   32.8600  -76.4287 O.2       10 UNK        -0.5018 
     22 N         -72.8965   30.2005  -75.1052 N.am      10 UNK        -0.4509 
     23 C         -71.7366   30.8556  -74.9578 C.2       10 UNK         0.4899 
     24 O         -71.6572   32.0721  -74.7812 O.2       10 UNK        -0.4839 
     25 CA        -70.4335   30.0351  -75.0700 C.3       9 UNK         0.0222 
     26 CB        -69.3573   30.5064  -74.0683 C.3       9 UNK        -0.1966 
     27 N         -70.6125   28.5779  -75.0077 N.am      9 UNK        -0.4218 
     28 C         -71.0254   27.8365  -73.9702 C.2       9 UNK         0.5020 
     29 O         -71.3357   28.2986  -72.8715 O.2       9 UNK        -0.5274 
     30 CA        -71.1189   26.3207  -74.2295 C.3       8 UNK         0.0270 
     31 CB        -71.5417   25.5269  -72.9780 C.3       8 UNK        -0.1976 
     32 N         -72.0372   26.0186  -75.3336 N.am      8 UNK        -0.4313 
     33 C         -71.7290   26.1093  -76.6371 C.2       8 UNK         0.5041 
     34 O         -70.6297   26.4979  -77.0362 O.2       8 UNK        -0.5577 
     35 CA        -72.8006   25.7279  -77.6773 C.3       7 UNK         0.0284 
     36 CB        -72.5386   24.3130  -78.2169 C.3       7 UNK        -0.1958 
     37 N         -74.1709   25.8008  -77.1697 N.am      7 UNK        -0.4454 
     38 C         -74.8123   26.9416  -76.8767 C.2       7 UNK         0.5089 
     39 O         -74.3402   28.0609  -77.0822 O.2       7 UNK        -0.5125 
     40 CA        -76.1992   26.8228  -76.2093 C.3       6 UNK         0.0408 
     41 CB        -77.2982   26.9461  -77.2745 C.3       6 UNK        -0.1791 
     42 N         -76.4139   25.5906  -75.4364 N.am      6 UNK        -0.4762 
     43 C         -75.6006   25.1168  -74.4749 C.2       6 UNK         0.5007 
     44 O         -74.6105   25.7296  -74.0827 O.2       6 UNK        -0.5032 
     45 CA        -75.8591   23.6906  -73.9304 C.3       5 UNK         0.0783 
     46 C46       -76.5050   23.7080  -72.5201 C.3       11 UNK        -0.0857 
     47 S47       -75.2788   24.0148  -71.2025 S.3       11 UNK        -0.2512 
     48 C48       -76.2272   25.0179  -70.0041 C.3       11 UNK         0.0225 
     49 N         -76.6271   22.8477  -74.8527 N.am      5 UNK        -0.4615 
     50 C         -76.3070   22.5592  -76.1232 C.2       4 UNK         0.5053 
     51 O         -75.2457   22.8936  -76.6509 O.2       4 UNK        -0.5105 
     52 CA        -77.3752   21.8337  -76.9674 C.3       4 UNK         0.0263 
     53 CB        -76.9859   20.3605  -77.1689 C.3       4 UNK        -0.1981 
     54 N         -78.7410   21.9025  -76.4234 N.am      4 UNK        -0.4224 
     55 C         -79.4289   23.0269  -76.1740 C.2       3 UNK         0.4895 
     56 O         -78.9887   24.1615  -76.3826 O.2       3 UNK        -0.5091 
     57 CA        -80.7985   22.8494  -75.5067 C.3       3 UNK         0.0250 
     58 CB        -80.6325   22.3149  -74.0672 C.3       3 UNK        -0.1996 
     59 N         -81.4751   24.1427  -75.4853 N.am      3 UNK        -0.4254 
     60 C         -82.7577   24.3738  -75.1858 C.2       2 UNK         0.5004 
     61 O         -83.5678   23.4781  -74.9390 O.2       2 UNK        -0.5226 
     62 CA        -83.1986   25.8520  -75.1236 C.3       2 UNK         0.0269 
     63 CB        -84.5817   26.0308  -74.4691 C.3       2 UNK        -0.1926 
     64 N         -82.2271   26.6820  -74.4013 N.am      2 UNK        -0.4687 
     65 C         -81.1305   27.2300  -74.9392 C.2       1 UNK         0.5165 
     66 O         -80.8330   27.0865  -76.1271 O.2       1 UNK        -0.5079 
     67 H67       -77.9914   31.4885  -75.7315 H         1 UNK         0.0900 
     68 H68       -77.3587   29.8866  -76.1185 H         1 UNK         0.0900 
     69 H69       -78.4908   30.6718  -77.2145 H         1 UNK         0.0900 
     70 H70       -78.2731   28.3953  -74.7280 H         1 UNK         0.2959 
     71 H71       -79.5971   27.2325  -73.4924 H         1 UNK         0.1079 
     72 H72       -81.8962   29.1989  -73.2505 H         1 UNK         0.0837 
     73 H73       -80.3781   29.7058  -72.6102 H         1 UNK         0.0837 
     74 H74       -79.9648   29.5533  -70.2298 H         1 UNK         0.0685 
     75 H75       -80.1418   28.1263  -69.2462 H         1 UNK         0.0685 
     76 H76       -78.6287   26.1913  -69.5042 H         1 UNK         0.1434 
     77 H77       -75.0120   26.7857  -71.7411 H         1 UNK         0.1329 
     78 H78       -78.1604   29.6744  -71.9580 H         1 UNK         0.1335 
     79 H79       -76.4693   29.4248  -73.7707 H         1 UNK         0.0680 
     80 H80       -75.0720   28.3882  -73.5648 H         1 UNK         0.0680 
     81 H81       -74.0274   32.3676  -73.6604 H         1 UNK         0.1032 
     82 H82       -75.6770   31.9717  -74.0293 H         1 UNK         0.1032 
     83 H83       -74.9161   29.9730  -75.3469 H         1 UNK         0.0461 
     84 H84       -74.3782   31.5457  -78.4965 H         1 UNK         0.3453 
     85 H85       -74.1219   30.0289  -77.6535 H         1 UNK         0.3453 
     86 H86       -72.8598   29.2079  -75.2842 H         1 UNK         0.2984 
     87 H87       -70.0505   30.2349  -76.0717 H         1 UNK         0.0554 
     88 H88       -69.1029   31.5547  -74.2293 H         1 UNK         0.0847 
     89 H89       -68.4364   29.9331  -74.1740 H         1 UNK         0.0847 
     90 H90       -69.6958   30.4123  -73.0360 H         1 UNK         0.0847 
     91 H91       -70.4212   28.0697  -75.8689 H         1 UNK         0.3141 
     92 H92       -70.1185   25.9795  -74.5048 H         1 UNK         0.0743 
     93 H93       -72.5030   25.8619  -72.5871 H         1 UNK         0.0784 
     94 H94       -71.6192   24.4602  -73.1885 H         1 UNK         0.0784 
     95 H95       -70.8106   25.6474  -72.1777 H         1 UNK         0.0784 
     96 H96       -72.9893   25.7845  -75.0608 H         1 UNK         0.3213 
     97 H97       -72.7109   26.4314  -78.5080 H         1 UNK         0.0855 
     98 H98       -72.6152   23.5612  -77.4302 H         1 UNK         0.0814 
     99 H99       -71.5382   24.2367  -78.6451 H         1 UNK         0.0814 
    100 H100      -73.2477   24.0490  -79.0017 H         1 UNK         0.0814 
    101 H101      -74.6292   24.9182  -76.9680 H         1 UNK         0.3105 
    102 H102      -76.2968   27.6586  -75.5179 H         1 UNK         0.0547 
    103 H103      -78.2906   26.9520  -76.8266 H         1 UNK         0.0837 
    104 H104      -77.2635   26.1184  -77.9841 H         1 UNK         0.0837 
    105 H105      -77.1942   27.8701  -77.8449 H         1 UNK         0.0837 
    106 H106      -77.2075   25.0223  -75.7172 H         1 UNK         0.3020 
    107 H107      -74.8779   23.2164  -73.8518 H         1 UNK         0.1245 
    108 H108      -76.9551   22.7392  -72.2974 H         1 UNK         0.0781 
    109 H109      -77.3209   24.4315  -72.4702 H         1 UNK         0.0781 
    110 H110      -75.5860   25.2349  -69.1490 H         1 UNK         0.0836 
    111 H111      -77.0483   24.4071  -69.6255 H         1 UNK         0.0836 
    112 H112      -77.5217   22.5258  -74.5169 H         1 UNK         0.3022 
    113 H113      -77.3898   22.3213  -77.9443 H         1 UNK         0.0747 
    114 H114      -77.6727   19.8568  -77.8494 H         1 UNK         0.0793 
    115 H115      -75.9873   20.2755  -77.6005 H         1 UNK         0.0793 
    116 H116      -76.9810   19.8114  -76.2265 H         1 UNK         0.0793 
    117 H117      -79.1786   21.0166  -76.2122 H         1 UNK         0.3047 
    118 H118      -81.3883   22.1498  -76.1025 H         1 UNK         0.0822 
    119 H119      -81.5966   22.1625  -73.5820 H         1 UNK         0.0807 
    120 H120      -80.0562   23.0031  -73.4473 H         1 UNK         0.0807 
    121 H121      -80.1206   21.3521  -74.0523 H         1 UNK         0.0807 
    122 H122      -80.8816   24.9245  -75.7483 H         1 UNK         0.2946 
    123 H123      -83.2733   26.2013  -76.1563 H         1 UNK         0.1144 
    124 H124      -84.5902   25.6708  -73.4395 H         1 UNK         0.0793 
    125 H125      -85.3489   25.4798  -75.0150 H         1 UNK         0.0793 
    126 H126      -84.8843   27.0781  -74.4612 H         1 UNK         0.0793 
    127 H127      -82.3814   26.7999  -73.4083 H         1 UNK         0.2896 
@<TRIPOS>BOND
     1    1    2 1    
     2    1   67 1    
     3    1   68 1    
     4    1   69 1    
     5    2    3 2    
     6    2    4 am   BACKBONE|DICT|INTERRES
     7    4    5 1    
     8    4   70 1    
     9    5    6 1    
    10    5   65 1    
    11    5   71 1    
    12    6    7 1    
    13    6   72 1    
    14    6   73 1    
    15    7    8 1    
    16    8    9 1    
    17    8   74 1    
    18    8   75 1    
    19    9   10 ar   
    20    9   14 ar   
    21   10   11 ar   
    22   10   76 1    
    23   11   12 ar   
    24   11   48 1    
    25   12   13 ar   
    26   12   77 1    
    27   13   14 ar   
    28   13   15 1    
    29   14   78 1    
    30   15   16 1    
    31   15   79 1    
    32   15   80 1    
    33   16   17 1    
    34   17   18 1    
    35   17   81 1    
    36   17   82 1    
    37   18   19 1    
    38   18   22 1    
    39   18   83 1    
    40   19   20 am   BACKBONE|DICT|INTERRES
    41   19   21 2    
    42   20   84 1    
    43   20   85 1    
    44   22   23 am   BACKBONE|DICT|INTERRES
    45   22   86 1    
    46   23   24 2    
    47   23   25 1    
    48   25   26 1    
    49   25   27 1    
    50   25   87 1    
    51   26   88 1    
    52   26   89 1    
    53   26   90 1    
    54   27   28 am   BACKBONE|DICT|INTERRES
    55   27   91 1    
    56   28   29 2    
    57   28   30 1    
    58   30   31 1    
    59   30   32 1    
    60   30   92 1    
    61   31   93 1    
    62   31   94 1    
    63   31   95 1    
    64   32   33 am   BACKBONE|DICT|INTERRES
    65   32   96 1    
    66   33   34 2    
    67   33   35 1    
    68   35   36 1    
    69   35   37 1    
    70   35   97 1    
    71   36   98 1    
    72   36   99 1    
    73   36  100 1    
    74   37   38 am   BACKBONE|DICT|INTERRES
    75   37  101 1    
    76   38   39 2    
    77   38   40 1    
    78   40   41 1    
    79   40   42 1    
    80   40  102 1    
    81   41  103 1    
    82   41  104 1    
    83   41  105 1    
    84   42   43 am   BACKBONE|DICT|INTERRES
    85   42  106 1    
    86   43   44 2    
    87   43   45 1    
    88   45   46 1    
    89   45   49 1    
    90   45  107 1    
    91   46   47 1    
    92   46  108 1    
    93   46  109 1    
    94   47   48 1    
    95   48  110 1    
    96   48  111 1    
    97   49   50 am   BACKBONE|DICT|INTERRES
    98   49  112 1    
    99   50   51 2    
   100   50   52 1    
   101   52   53 1    
   102   52   54 1    
   103   52  113 1    
   104   53  114 1    
   105   53  115 1    
   106   53  116 1    
   107   54   55 am   BACKBONE|DICT|INTERRES
   108   54  117 1    
   109   55   56 2    
   110   55   57 1    
   111   57   58 1    
   112   57   59 1    
   113   57  118 1    
   114   58  119 1    
   115   58  120 1    
   116   58  121 1    
   117   59   60 am   BACKBONE|DICT|INTERRES
   118   59  122 1    
   119   60   61 2    
   120   60   62 1    
   121   62   63 1    
   122   62   64 1    
   123   62  123 1    
   124   63  124 1    
   125   63  125 1    
   126   63  126 1    
   127   64   65 am   BACKBONE|DICT|INTERRES
   128   64  127 1    
   129   65   66 2    
@<TRIPOS>SUBSTRUCTURE
     1 UNK         1 GROUP             0       ****    0 ROOT    
