@<TRIPOS>MOLECULE
3R135
127   129    1
SMALL
USER_CHARGES


@<TRIPOS>ATOM
      1 CA        -81.0971   21.4174  -72.8525 C.3       0 UNK        -0.1998 
      2 C         -80.7073   22.8846  -72.7651 C.2       0 UNK         0.4909 
      3 O         -79.5318   23.2125  -72.9247 O.2       0 UNK        -0.5240 
      4 N         -81.6870   23.7702  -72.5307 N.am      1 UNK        -0.4739 
      5 CA        -81.5224   25.2253  -72.3945 C.3       1 UNK         0.0864 
      6 C6        -80.7665   25.6052  -71.0920 C.3       11 UNK        -0.0881 
      7 S7        -81.2637   27.2329  -70.4370 S.3       11 UNK        -0.2682 
      8 C8        -79.6824   27.8798  -69.7833 C.3       11 UNK         0.0289 
      9 C9        -78.9573   28.9138  -70.6504 C.ar      11 UNK        -0.0687 
     10 C10       -79.5368   29.5161  -71.7761 C.ar      11 UNK        -0.0823 
     11 C11       -78.8618   30.5199  -72.4794 C.ar      11 UNK        -0.0830 
     12 C12       -77.5844   30.9084  -72.0659 C.ar      11 UNK        -0.1021 
     13 C13       -76.9830   30.3104  -70.9551 C.ar      11 UNK        -0.0753 
     14 C14       -77.6799   29.3212  -70.2524 C.ar      11 UNK        -0.0933 
     15 C15       -75.6086   30.7846  -70.4892 C.3       11 UNK         0.0166 
     16 S16       -74.4598   29.4265  -70.0850 S.3       11 UNK        -0.2615 
     17 C17       -74.1885   28.6716  -71.7223 C.3       11 UNK        -0.0865 
     18 CA        -72.8218   29.0502  -72.3476 C.3       10 UNK         0.0862 
     19 C         -71.6404   28.3245  -71.6463 C.2       10 UNK         0.5551 
     20 N         -70.8243   29.0446  -70.8886 N.am      10 UNK        -0.7319 
     21 O         -71.4835   27.1102  -71.7576 O.2       10 UNK        -0.5018 
     22 N         -72.8369   28.7800  -73.7886 N.am      10 UNK        -0.4509 
     23 C         -71.9242   29.2077  -74.6690 C.2       10 UNK         0.4899 
     24 O         -71.0012   29.9725  -74.3828 O.2       10 UNK        -0.4839 
     25 CA        -72.0860   28.6922  -76.1125 C.3       9 UNK         0.0222 
     26 CB        -70.8994   29.0570  -77.0303 C.3       9 UNK        -0.1966 
     27 N         -72.3731   27.2537  -76.1619 N.am      9 UNK        -0.4218 
     28 C         -71.5856   26.2479  -75.7480 C.2       9 UNK         0.5020 
     29 O         -70.4486   26.3962  -75.2984 O.2       9 UNK        -0.5274 
     30 CA        -72.1609   24.8233  -75.8531 C.3       8 UNK         0.0270 
     31 CB        -72.6641   24.3461  -74.4824 C.3       8 UNK        -0.1976 
     32 N         -73.2322   24.7117  -76.8514 N.am      8 UNK        -0.4313 
     33 C         -73.0014   24.6462  -78.1704 C.2       8 UNK         0.5041 
     34 O         -71.8748   24.6374  -78.6690 O.2       8 UNK        -0.5577 
     35 CA        -74.2252   24.5981  -79.0933 C.3       7 UNK         0.0284 
     36 CB        -74.8644   23.1985  -79.1145 C.3       7 UNK        -0.1958 
     37 N         -75.2218   25.6170  -78.7487 N.am      7 UNK        -0.4454 
     38 C         -75.1384   26.8905  -79.1591 C.2       7 UNK         0.5089 
     39 O         -74.1666   27.3541  -79.7565 O.2       7 UNK        -0.5125 
     40 CA        -76.3558   27.7909  -78.9165 C.3       6 UNK         0.0408 
     41 CB        -77.5088   27.3975  -79.8554 C.3       6 UNK        -0.1791 
     42 N         -76.8242   27.7661  -77.5314 N.am      6 UNK        -0.4762 
     43 C         -76.4417   28.6510  -76.6002 C.2       6 UNK         0.5007 
     44 O         -75.5469   29.4793  -76.7705 O.2       6 UNK        -0.5032 
     45 CA        -77.2063   28.6292  -75.2608 C.3       5 UNK         0.0783 
     46 C46       -78.6356   29.2107  -75.4163 C.3       11 UNK        -0.0857 
     47 S47       -78.6434   31.0220  -75.2265 S.3       11 UNK        -0.2512 
     48 C48       -79.5398   31.2217  -73.6520 C.3       11 UNK         0.0225 
     49 N         -77.2217   27.3115  -74.6291 N.am      5 UNK        -0.4615 
     50 C         -76.1339   26.6486  -74.2184 C.2       4 UNK         0.5053 
     51 O         -74.9819   27.0536  -74.3662 O.2       4 UNK        -0.5105 
     52 CA        -76.3785   25.2853  -73.5532 C.3       4 UNK         0.0263 
     53 CB        -76.8882   25.4711  -72.1158 C.3       4 UNK        -0.1981 
     54 N         -77.3109   24.4677  -74.3312 N.am      4 UNK        -0.4224 
     55 C         -77.0657   24.0613  -75.5860 C.2       3 UNK         0.4895 
     56 O         -75.9967   24.2505  -76.1674 O.2       3 UNK        -0.5091 
     57 CA        -78.2215   23.3945  -76.3463 C.3       3 UNK         0.0250 
     58 CB        -78.3459   21.9080  -75.9777 C.3       3 UNK        -0.1996 
     59 N         -79.4941   24.0860  -76.1238 N.am      3 UNK        -0.4254 
     60 C         -79.7614   25.3248  -76.5648 C.2       2 UNK         0.5004 
     61 O         -78.9832   25.9885  -77.2478 O.2       2 UNK        -0.5226 
     62 CA        -81.1059   25.9467  -76.1538 C.3       2 UNK         0.0269 
     63 CB        -82.1914   25.6149  -77.1894 C.3       2 UNK        -0.1926 
     64 N         -81.5541   25.5311  -74.8220 N.am      2 UNK        -0.4687 
     65 C         -80.9257   25.8456  -73.6792 C.2       1 UNK         0.5165 
     66 O         -79.9014   26.5288  -73.6395 O.2       1 UNK        -0.5079 
     67 H67       -80.8705   21.0269  -73.8440 H         1 UNK         0.0900 
     68 H68       -80.5341   20.8379  -72.1215 H         1 UNK         0.0900 
     69 H69       -82.1590   21.2647  -72.6609 H         1 UNK         0.0900 
     70 H70       -82.6339   23.4328  -72.4220 H         1 UNK         0.2959 
     71 H71       -82.5361   25.6225  -72.3178 H         1 UNK         0.1079 
     72 H72       -80.9942   24.8811  -70.3083 H         1 UNK         0.0837 
     73 H73       -79.6881   25.5469  -71.2283 H         1 UNK         0.0837 
     74 H74       -79.8965   28.3483  -68.8219 H         1 UNK         0.0685 
     75 H75       -79.0093   27.0489  -69.5670 H         1 UNK         0.0685 
     76 H76       -80.5277   29.2302  -72.0973 H         1 UNK         0.1434 
     77 H77       -77.0676   31.6919  -72.6036 H         1 UNK         0.1329 
     78 H78       -77.2300   28.8775  -69.3746 H         1 UNK         0.1335 
     79 H79       -75.1414   31.4211  -71.2426 H         1 UNK         0.0680 
     80 H80       -75.7402   31.4040  -69.6012 H         1 UNK         0.0680 
     81 H81       -74.2869   27.5883  -71.6325 H         1 UNK         0.1032 
     82 H82       -74.9992   28.9830  -72.3824 H         1 UNK         0.1032 
     83 H83       -72.6893   30.1285  -72.2354 H         1 UNK         0.0461 
     84 H84       -70.9570   30.0383  -70.7835 H         1 UNK         0.3453 
     85 H85       -70.0610   28.5871  -70.4156 H         1 UNK         0.3453 
     86 H86       -73.5516   28.1264  -74.1046 H         1 UNK         0.2984 
     87 H87       -72.9669   29.1909  -76.5151 H         1 UNK         0.0554 
     88 H88       -70.7746   30.1386  -77.0934 H         1 UNK         0.0847 
     89 H89       -71.0564   28.6898  -78.0446 H         1 UNK         0.0847 
     90 H90       -69.9588   28.6440  -76.6649 H         1 UNK         0.0847 
     91 H91       -73.3032   27.0067  -76.4698 H         1 UNK         0.3141 
     92 H92       -71.3472   24.1594  -76.1537 H         1 UNK         0.0743 
     93 H93       -73.3014   25.0907  -74.0100 H         1 UNK         0.0784 
     94 H94       -73.2194   23.4107  -74.5539 H         1 UNK         0.0784 
     95 H95       -71.8256   24.1788  -73.8052 H         1 UNK         0.0784 
     96 H96       -74.1948   24.6634  -76.5193 H         1 UNK         0.3213 
     97 H97       -73.8723   24.7971  -80.1083 H         1 UNK         0.0855 
     98 H98       -75.1931   22.8729  -78.1287 H         1 UNK         0.0814 
     99 H99       -74.1495   22.4564  -79.4721 H         1 UNK         0.0814 
    100 H100      -75.7247   23.1650  -79.7830 H         1 UNK         0.0814 
    101 H101      -76.0107   25.3227  -78.1879 H         1 UNK         0.3105 
    102 H102      -76.0675   28.8112  -79.1796 H         1 UNK         0.0547 
    103 H103      -78.3613   28.0663  -79.7365 H         1 UNK         0.0837 
    104 H104      -77.8567   26.3802  -79.6733 H         1 UNK         0.0837 
    105 H105      -77.1974   27.4522  -80.8994 H         1 UNK         0.0837 
    106 H106      -77.5726   27.1072  -77.3149 H         1 UNK         0.3020 
    107 H107      -76.6483   29.2677  -74.5716 H         1 UNK         0.1245 
    108 H108      -79.3038   28.7925  -74.6646 H         1 UNK         0.0781 
    109 H109      -79.0877   28.9463  -76.3743 H         1 UNK         0.0781 
    110 H110      -80.5620   30.8629  -73.7829 H         1 UNK         0.0836 
    111 H111      -79.6195   32.2862  -73.4271 H         1 UNK         0.0836 
    112 H112      -78.1353   26.9169  -74.4239 H         1 UNK         0.3022 
    113 H113      -75.4366   24.7402  -73.5062 H         1 UNK         0.0747 
    114 H114      -77.2031   24.5258  -71.6736 H         1 UNK         0.0793 
    115 H115      -76.1056   25.8848  -71.4795 H         1 UNK         0.0793 
    116 H116      -77.7282   26.1636  -72.0743 H         1 UNK         0.0793 
    117 H117      -78.1991   24.2291  -73.8962 H         1 UNK         0.3047 
    118 H118      -77.9918   23.4565  -77.4124 H         1 UNK         0.0822 
    119 H119      -79.1422   21.4234  -76.5427 H         1 UNK         0.0807 
    120 H120      -78.5497   21.7642  -74.9169 H         1 UNK         0.0807 
    121 H121      -77.4203   21.3764  -76.2030 H         1 UNK         0.0807 
    122 H122      -80.1730   23.6259  -75.5361 H         1 UNK         0.2946 
    123 H123      -80.9679   27.0303  -76.1377 H         1 UNK         0.1144 
    124 H124      -83.1279   26.1236  -76.9599 H         1 UNK         0.0793 
    125 H125      -82.3926   24.5440  -77.2375 H         1 UNK         0.0793 
    126 H126      -81.8878   25.9346  -78.1875 H         1 UNK         0.0793 
    127 H127      -82.3765   24.9464  -74.7769 H         1 UNK         0.2896 
@<TRIPOS>BOND
     1    1    2 1    
     2    1   67 1    
     3    1   68 1    
     4    1   69 1    
     5    2    3 2    
     6    2    4 am   BACKBONE|DICT|INTERRES
     7    4    5 1    
     8    4   70 1    
     9    5    6 1    
    10    5   65 1    
    11    5   71 1    
    12    6    7 1    
    13    6   72 1    
    14    6   73 1    
    15    7    8 1    
    16    8    9 1    
    17    8   74 1    
    18    8   75 1    
    19    9   10 ar   
    20    9   14 ar   
    21   10   11 ar   
    22   10   76 1    
    23   11   12 ar   
    24   11   48 1    
    25   12   13 ar   
    26   12   77 1    
    27   13   14 ar   
    28   13   15 1    
    29   14   78 1    
    30   15   16 1    
    31   15   79 1    
    32   15   80 1    
    33   16   17 1    
    34   17   18 1    
    35   17   81 1    
    36   17   82 1    
    37   18   19 1    
    38   18   22 1    
    39   18   83 1    
    40   19   20 am   BACKBONE|DICT|INTERRES
    41   19   21 2    
    42   20   84 1    
    43   20   85 1    
    44   22   23 am   BACKBONE|DICT|INTERRES
    45   22   86 1    
    46   23   24 2    
    47   23   25 1    
    48   25   26 1    
    49   25   27 1    
    50   25   87 1    
    51   26   88 1    
    52   26   89 1    
    53   26   90 1    
    54   27   28 am   BACKBONE|DICT|INTERRES
    55   27   91 1    
    56   28   29 2    
    57   28   30 1    
    58   30   31 1    
    59   30   32 1    
    60   30   92 1    
    61   31   93 1    
    62   31   94 1    
    63   31   95 1    
    64   32   33 am   BACKBONE|DICT|INTERRES
    65   32   96 1    
    66   33   34 2    
    67   33   35 1    
    68   35   36 1    
    69   35   37 1    
    70   35   97 1    
    71   36   98 1    
    72   36   99 1    
    73   36  100 1    
    74   37   38 am   BACKBONE|DICT|INTERRES
    75   37  101 1    
    76   38   39 2    
    77   38   40 1    
    78   40   41 1    
    79   40   42 1    
    80   40  102 1    
    81   41  103 1    
    82   41  104 1    
    83   41  105 1    
    84   42   43 am   BACKBONE|DICT|INTERRES
    85   42  106 1    
    86   43   44 2    
    87   43   45 1    
    88   45   46 1    
    89   45   49 1    
    90   45  107 1    
    91   46   47 1    
    92   46  108 1    
    93   46  109 1    
    94   47   48 1    
    95   48  110 1    
    96   48  111 1    
    97   49   50 am   BACKBONE|DICT|INTERRES
    98   49  112 1    
    99   50   51 2    
   100   50   52 1    
   101   52   53 1    
   102   52   54 1    
   103   52  113 1    
   104   53  114 1    
   105   53  115 1    
   106   53  116 1    
   107   54   55 am   BACKBONE|DICT|INTERRES
   108   54  117 1    
   109   55   56 2    
   110   55   57 1    
   111   57   58 1    
   112   57   59 1    
   113   57  118 1    
   114   58  119 1    
   115   58  120 1    
   116   58  121 1    
   117   59   60 am   BACKBONE|DICT|INTERRES
   118   59  122 1    
   119   60   61 2    
   120   60   62 1    
   121   62   63 1    
   122   62   64 1    
   123   62  123 1    
   124   63  124 1    
   125   63  125 1    
   126   63  126 1    
   127   64   65 am   BACKBONE|DICT|INTERRES
   128   64  127 1    
   129   65   66 2    
@<TRIPOS>SUBSTRUCTURE
     1 UNK         1 GROUP             0       ****    0 ROOT    
