@<TRIPOS>MOLECULE
3R135
127   129    1
SMALL
USER_CHARGES


@<TRIPOS>ATOM
      1 CA        -83.6623   22.8595  -69.5401 C.3       0 UNK        -0.1998 
      2 C         -83.6151   23.8356  -70.7061 C.2       0 UNK         0.4909 
      3 O         -84.6352   24.0584  -71.3587 O.2       0 UNK        -0.5240 
      4 N         -82.4391   24.4221  -70.9695 N.am      1 UNK        -0.4739 
      5 CA        -82.1992   25.3624  -72.0721 C.3       1 UNK         0.0864 
      6 C6        -80.8524   26.1050  -71.8812 C.3       11 UNK        -0.0881 
      7 S7        -80.7107   27.6042  -72.9177 S.3       11 UNK        -0.2682 
      8 C8        -80.1650   28.8785  -71.7330 C.3       11 UNK         0.0289 
      9 C9        -78.8462   29.4933  -72.1743 C.ar      11 UNK        -0.0687 
     10 C10       -78.8411   30.5562  -73.0813 C.ar      11 UNK        -0.0823 
     11 C11       -77.6358   31.1173  -73.5138 C.ar      11 UNK        -0.0830 
     12 C12       -76.4287   30.6066  -73.0270 C.ar      11 UNK        -0.1021 
     13 C13       -76.4195   29.5372  -72.1251 C.ar      11 UNK        -0.0753 
     14 C14       -77.6329   28.9937  -71.6920 C.ar      11 UNK        -0.0933 
     15 C15       -75.0999   28.9370  -71.6628 C.3       11 UNK         0.0166 
     16 S16       -74.0622   30.1561  -70.7952 S.3       11 UNK        -0.2615 
     17 C17       -72.5132   29.2154  -70.5705 C.3       11 UNK        -0.0865 
     18 CA        -71.4530   29.5393  -71.6582 C.3       10 UNK         0.0862 
     19 C         -70.0632   28.9381  -71.2895 C.2       10 UNK         0.5551 
     20 N         -69.4622   28.0730  -72.0991 N.am      10 UNK        -0.7319 
     21 O         -69.5135   29.2722  -70.2428 O.2       10 UNK        -0.5018 
     22 N         -71.9344   29.1674  -72.9963 N.am      10 UNK        -0.4509 
     23 C         -71.5011   29.6799  -74.1536 C.2       10 UNK         0.4899 
     24 O         -70.6925   30.6056  -74.2349 O.2       10 UNK        -0.4839 
     25 CA        -72.0731   29.0308  -75.4314 C.3       9 UNK         0.0222 
     26 CB        -71.1883   29.2661  -76.6729 C.3       9 UNK        -0.1966 
     27 N         -72.3755   27.5998  -75.2754 N.am      9 UNK        -0.4218 
     28 C         -71.5213   26.6225  -74.9310 C.2       9 UNK         0.5020 
     29 O         -70.3290   26.8073  -74.6840 O.2       9 UNK        -0.5274 
     30 CA        -72.0951   25.2056  -74.8032 C.3       8 UNK         0.0270 
     31 CB        -72.7186   25.0049  -73.4103 C.3       8 UNK        -0.1976 
     32 N         -73.0993   24.9307  -75.8358 N.am      8 UNK        -0.4313 
     33 C         -72.9576   24.0223  -76.8096 C.2       8 UNK         0.5041 
     34 O         -71.9599   23.3124  -76.9470 O.2       8 UNK        -0.5577 
     35 CA        -74.1247   23.8525  -77.7965 C.3       7 UNK         0.0284 
     36 CB        -75.1588   22.8545  -77.2505 C.3       7 UNK        -0.1958 
     37 N         -74.7954   25.1031  -78.1592 N.am      7 UNK        -0.4454 
     38 C         -74.2649   26.0380  -78.9614 C.2       7 UNK         0.5089 
     39 O         -73.1120   26.0005  -79.3914 O.2       7 UNK        -0.5125 
     40 CA        -75.1828   27.1973  -79.3771 C.3       6 UNK         0.0408 
     41 CB        -76.1766   26.7378  -80.4571 C.3       6 UNK        -0.1791 
     42 N         -75.9211   27.7199  -78.2293 N.am      6 UNK        -0.4762 
     43 C         -75.5608   28.8009  -77.5226 C.2       6 UNK         0.5007 
     44 O         -74.6120   29.5254  -77.8220 O.2       6 UNK        -0.5032 
     45 CA        -76.3824   29.1185  -76.2522 C.3       5 UNK         0.0783 
     46 C46       -77.4305   30.2352  -76.5130 C.3       11 UNK        -0.0857 
     47 S47       -76.7640   31.8760  -76.0693 S.3       11 UNK        -0.2512 
     48 C48       -77.6482   32.2638  -74.5192 C.3       11 UNK         0.0225 
     49 N         -76.9846   27.9266  -75.6439 N.am      5 UNK        -0.4615 
     50 C         -76.2836   26.9067  -75.1311 C.2       4 UNK         0.5053 
     51 O         -75.0546   26.8867  -75.0789 O.2       4 UNK        -0.5105 
     52 CA        -77.0621   25.6674  -74.6631 C.3       4 UNK         0.0263 
     53 CB        -77.2764   25.7030  -73.1451 C.3       4 UNK        -0.1981 
     54 N         -78.3432   25.4620  -75.3496 N.am      4 UNK        -0.4224 
     55 C         -78.4829   25.2699  -76.6707 C.2       3 UNK         0.4895 
     56 O         -77.5384   25.3201  -77.4623 O.2       3 UNK        -0.5091 
     57 CA        -79.9095   25.0148  -77.1965 C.3       3 UNK         0.0250 
     58 CB        -79.9124   24.3073  -78.5685 C.3       3 UNK        -0.1996 
     59 N         -80.7786   24.3106  -76.2427 N.am      3 UNK        -0.4254 
     60 C         -80.6101   23.0842  -75.7257 C.2       2 UNK         0.5004 
     61 O         -79.6456   22.3587  -75.9733 O.2       2 UNK        -0.5226 
     62 CA        -81.7010   22.6085  -74.7435 C.3       2 UNK         0.0269 
     63 CB        -81.5235   21.1358  -74.3277 C.3       2 UNK        -0.1926 
     64 N         -81.7513   23.4341  -73.5329 N.am      2 UNK        -0.4687 
     65 C         -82.2739   24.6665  -73.4496 C.2       1 UNK         0.5165 
     66 O         -82.7958   25.2444  -74.4051 O.2       1 UNK        -0.5079 
     67 H67       -82.6951   22.7650  -69.0469 H         1 UNK         0.0900 
     68 H68       -84.3886   23.1943  -68.8000 H         1 UNK         0.0900 
     69 H69       -83.9624   21.8721  -69.8899 H         1 UNK         0.0900 
     70 H70       -81.6407   24.2058  -70.3891 H         1 UNK         0.2959 
     71 H71       -83.0029   26.1023  -72.0434 H         1 UNK         0.1079 
     72 H72       -80.7491   26.3895  -70.8337 H         1 UNK         0.0837 
     73 H73       -80.0093   25.4446  -72.0875 H         1 UNK         0.0837 
     74 H74       -80.9329   29.6511  -71.6701 H         1 UNK         0.0685 
     75 H75       -80.0648   28.4745  -70.7255 H         1 UNK         0.0685 
     76 H76       -79.7805   30.9364  -73.4593 H         1 UNK         0.1434 
     77 H77       -75.4926   31.0286  -73.3668 H         1 UNK         0.1329 
     78 H78       -77.6351   28.1641  -70.9983 H         1 UNK         0.1335 
     79 H79       -74.5748   28.5530  -72.5374 H         1 UNK         0.0680 
     80 H80       -75.2702   28.0841  -71.0039 H         1 UNK         0.0680 
     81 H81       -72.1304   29.4703  -69.5802 H         1 UNK         0.1032 
     82 H82       -72.7254   28.1451  -70.5398 H         1 UNK         0.1032 
     83 H83       -71.3079   30.6215  -71.6552 H         1 UNK         0.0461 
     84 H84       -69.8801   27.7906  -72.9786 H         1 UNK         0.3453 
     85 H85       -68.5621   27.7043  -71.8368 H         1 UNK         0.3453 
     86 H86       -72.5823   28.3969  -73.0345 H         1 UNK         0.2984 
     87 H87       -73.0288   29.5243  -75.6091 H         1 UNK         0.0554 
     88 H88       -71.0663   30.3314  -76.8715 H         1 UNK         0.0847 
     89 H89       -71.6345   28.8227  -77.5634 H         1 UNK         0.0847 
     90 H90       -70.1922   28.8408  -76.5470 H         1 UNK         0.0847 
     91 H91       -73.3606   27.3537  -75.3586 H         1 UNK         0.3141 
     92 H92       -71.2557   24.5128  -74.8924 H         1 UNK         0.0743 
     93 H93       -71.9853   25.1922  -72.6245 H         1 UNK         0.0784 
     94 H94       -73.5616   25.6737  -73.2353 H         1 UNK         0.0784 
     95 H95       -73.0740   23.9823  -73.2828 H         1 UNK         0.0784 
     96 H96       -73.9457   25.4898  -75.8012 H         1 UNK         0.3213 
     97 H97       -73.7099   23.4264  -78.7130 H         1 UNK         0.0855 
     98 H98       -75.6227   23.2096  -76.3313 H         1 UNK         0.0814 
     99 H99       -74.6932   21.8932  -77.0289 H         1 UNK         0.0814 
    100 H100      -75.9535   22.6700  -77.9739 H         1 UNK         0.0814 
    101 H101      -75.7714   25.1946  -77.8825 H         1 UNK         0.3105 
    102 H102      -74.5588   27.9802  -79.8135 H         1 UNK         0.0547 
    103 H103      -76.7951   27.5662  -80.8021 H         1 UNK         0.0837 
    104 H104      -75.6507   26.3426  -81.3273 H         1 UNK         0.0837 
    105 H105      -76.8419   25.9532  -80.0945 H         1 UNK         0.0837 
    106 H106      -76.6884   27.1495  -77.8918 H         1 UNK         0.3020 
    107 H107      -75.6586   29.4792  -75.5182 H         1 UNK         0.1245 
    108 H108      -78.3416   30.0622  -75.9391 H         1 UNK         0.0781 
    109 H109      -77.7568   30.2565  -77.5550 H         1 UNK         0.0781 
    110 H110      -78.6717   32.5483  -74.7683 H         1 UNK         0.0836 
    111 H111      -77.1911   33.1425  -74.0623 H         1 UNK         0.0836 
    112 H112      -77.9920   27.8716  -75.6411 H         1 UNK         0.3022 
    113 H113      -76.4359   24.8026  -74.8841 H         1 UNK         0.0747 
    114 H114      -77.6964   24.7653  -72.7815 H         1 UNK         0.0793 
    115 H115      -76.3336   25.8596  -72.6187 H         1 UNK         0.0793 
    116 H116      -77.9472   26.5100  -72.8580 H         1 UNK         0.0793 
    117 H117      -79.1702   25.4252  -74.7725 H         1 UNK         0.3047 
    118 H118      -80.3535   26.0013  -77.3367 H         1 UNK         0.0822 
    119 H119      -79.3890   24.9022  -79.3182 H         1 UNK         0.0807 
    120 H120      -80.9276   24.1512  -78.9333 H         1 UNK         0.0807 
    121 H121      -79.4180   23.3363  -78.5235 H         1 UNK         0.0807 
    122 H122      -81.5864   24.8323  -75.9120 H         1 UNK         0.2946 
    123 H123      -82.6583   22.6912  -75.2640 H         1 UNK         0.1144 
    124 H124      -82.3427   20.8020  -73.6905 H         1 UNK         0.0793 
    125 H125      -80.5902   20.9773  -73.7859 H         1 UNK         0.0793 
    126 H126      -81.5087   20.4825  -75.2012 H         1 UNK         0.0793 
    127 H127      -81.3398   23.0365  -72.7009 H         1 UNK         0.2896 
@<TRIPOS>BOND
     1    1    2 1    
     2    1   67 1    
     3    1   68 1    
     4    1   69 1    
     5    2    3 2    
     6    2    4 am   BACKBONE|DICT|INTERRES
     7    4    5 1    
     8    4   70 1    
     9    5    6 1    
    10    5   65 1    
    11    5   71 1    
    12    6    7 1    
    13    6   72 1    
    14    6   73 1    
    15    7    8 1    
    16    8    9 1    
    17    8   74 1    
    18    8   75 1    
    19    9   10 ar   
    20    9   14 ar   
    21   10   11 ar   
    22   10   76 1    
    23   11   12 ar   
    24   11   48 1    
    25   12   13 ar   
    26   12   77 1    
    27   13   14 ar   
    28   13   15 1    
    29   14   78 1    
    30   15   16 1    
    31   15   79 1    
    32   15   80 1    
    33   16   17 1    
    34   17   18 1    
    35   17   81 1    
    36   17   82 1    
    37   18   19 1    
    38   18   22 1    
    39   18   83 1    
    40   19   20 am   BACKBONE|DICT|INTERRES
    41   19   21 2    
    42   20   84 1    
    43   20   85 1    
    44   22   23 am   BACKBONE|DICT|INTERRES
    45   22   86 1    
    46   23   24 2    
    47   23   25 1    
    48   25   26 1    
    49   25   27 1    
    50   25   87 1    
    51   26   88 1    
    52   26   89 1    
    53   26   90 1    
    54   27   28 am   BACKBONE|DICT|INTERRES
    55   27   91 1    
    56   28   29 2    
    57   28   30 1    
    58   30   31 1    
    59   30   32 1    
    60   30   92 1    
    61   31   93 1    
    62   31   94 1    
    63   31   95 1    
    64   32   33 am   BACKBONE|DICT|INTERRES
    65   32   96 1    
    66   33   34 2    
    67   33   35 1    
    68   35   36 1    
    69   35   37 1    
    70   35   97 1    
    71   36   98 1    
    72   36   99 1    
    73   36  100 1    
    74   37   38 am   BACKBONE|DICT|INTERRES
    75   37  101 1    
    76   38   39 2    
    77   38   40 1    
    78   40   41 1    
    79   40   42 1    
    80   40  102 1    
    81   41  103 1    
    82   41  104 1    
    83   41  105 1    
    84   42   43 am   BACKBONE|DICT|INTERRES
    85   42  106 1    
    86   43   44 2    
    87   43   45 1    
    88   45   46 1    
    89   45   49 1    
    90   45  107 1    
    91   46   47 1    
    92   46  108 1    
    93   46  109 1    
    94   47   48 1    
    95   48  110 1    
    96   48  111 1    
    97   49   50 am   BACKBONE|DICT|INTERRES
    98   49  112 1    
    99   50   51 2    
   100   50   52 1    
   101   52   53 1    
   102   52   54 1    
   103   52  113 1    
   104   53  114 1    
   105   53  115 1    
   106   53  116 1    
   107   54   55 am   BACKBONE|DICT|INTERRES
   108   54  117 1    
   109   55   56 2    
   110   55   57 1    
   111   57   58 1    
   112   57   59 1    
   113   57  118 1    
   114   58  119 1    
   115   58  120 1    
   116   58  121 1    
   117   59   60 am   BACKBONE|DICT|INTERRES
   118   59  122 1    
   119   60   61 2    
   120   60   62 1    
   121   62   63 1    
   122   62   64 1    
   123   62  123 1    
   124   63  124 1    
   125   63  125 1    
   126   63  126 1    
   127   64   65 am   BACKBONE|DICT|INTERRES
   128   64  127 1    
   129   65   66 2    
@<TRIPOS>SUBSTRUCTURE
     1 UNK         1 GROUP             0       ****    0 ROOT    
