@<TRIPOS>MOLECULE
3R135
127   129    1
SMALL
USER_CHARGES


@<TRIPOS>ATOM
      1 CA        -82.3950   28.2715  -70.2964 C.3       0 UNK        -0.1998 
      2 C         -82.7723   28.0131  -71.7473 C.2       0 UNK         0.4909 
      3 O         -83.7838   27.3641  -72.0138 O.2       0 UNK        -0.5240 
      4 N         -81.9612   28.5151  -72.6874 N.am      1 UNK        -0.4739 
      5 CA        -82.1345   28.3489  -74.1374 C.3       1 UNK         0.0864 
      6 C6        -81.3431   29.4187  -74.9377 C.3       11 UNK        -0.0881 
      7 S7        -79.5365   29.4069  -74.6560 S.3       11 UNK        -0.2682 
      8 C8        -79.3661   30.5560  -73.2438 C.3       11 UNK         0.0289 
      9 C9        -78.4148   30.0239  -72.1759 C.ar      11 UNK        -0.0687 
     10 C10       -78.4740   28.6880  -71.7665 C.ar      11 UNK        -0.0823 
     11 C11       -77.5667   28.1823  -70.8339 C.ar      11 UNK        -0.0830 
     12 C12       -76.6197   29.0364  -70.2633 C.ar      11 UNK        -0.1021 
     13 C13       -76.5644   30.3820  -70.6407 C.ar      11 UNK        -0.0753 
     14 C14       -77.4656   30.8699  -71.5943 C.ar      11 UNK        -0.0933 
     15 C15       -75.5189   31.3044  -70.0289 C.3       11 UNK         0.0166 
     16 S16       -73.8598   31.0264  -70.7312 S.3       11 UNK        -0.2615 
     17 C17       -74.1178   31.4570  -72.4863 C.3       11 UNK        -0.0865 
     18 CA        -74.1956   30.2082  -73.4076 C.3       10 UNK         0.0862 
     19 C         -74.7615   30.6006  -74.7945 C.2       10 UNK         0.5551 
     20 N         -76.0711   30.5075  -74.9796 N.am      10 UNK        -0.7319 
     21 O         -74.0315   31.0423  -75.6809 O.2       10 UNK        -0.5018 
     22 N         -72.8810   29.5725  -73.5677 N.am      10 UNK        -0.4509 
     23 C         -72.4555   28.4688  -72.9444 C.2       10 UNK         0.4899 
     24 O         -73.1302   27.8134  -72.1492 O.2       10 UNK        -0.4839 
     25 CA        -71.0079   28.0498  -73.2664 C.3       9 UNK         0.0222 
     26 CB        -70.4158   27.0760  -72.2235 C.3       9 UNK        -0.1966 
     27 N         -70.8662   27.5248  -74.6313 N.am      9 UNK        -0.4218 
     28 C         -71.4142   26.4097  -75.1377 C.2       9 UNK         0.5020 
     29 O         -72.0949   25.6109  -74.4951 O.2       9 UNK        -0.5274 
     30 CA        -71.0803   26.0984  -76.6012 C.3       8 UNK         0.0270 
     31 CB        -69.8978   25.1129  -76.6856 C.3       8 UNK        -0.1976 
     32 N         -72.2539   25.5483  -77.2821 N.am      8 UNK        -0.4313 
     33 C         -72.4162   25.5357  -78.6129 C.2       8 UNK         0.5041 
     34 O         -71.5688   25.9504  -79.4062 O.2       8 UNK        -0.5577 
     35 CA        -73.7432   24.9917  -79.1698 C.3       7 UNK         0.0284 
     36 CB        -73.7707   23.4547  -79.1476 C.3       7 UNK        -0.1958 
     37 N         -74.9075   25.5316  -78.4676 N.am      7 UNK        -0.4454 
     38 C         -75.3343   26.7992  -78.5725 C.2       7 UNK         0.5089 
     39 O         -74.8470   27.6239  -79.3468 O.2       7 UNK        -0.5125 
     40 CA        -76.4894   27.2329  -77.6494 C.3       6 UNK         0.0408 
     41 CB        -77.8485   27.0015  -78.3261 C.3       6 UNK        -0.1791 
     42 N         -76.4695   26.5626  -76.3479 N.am      6 UNK        -0.4762 
     43 C         -75.4831   26.6898  -75.4483 C.2       6 UNK         0.5007 
     44 O         -74.5144   27.4299  -75.6061 O.2       6 UNK        -0.5032 
     45 CA        -75.5789   25.8237  -74.1785 C.3       5 UNK         0.0783 
     46 C46       -76.4758   26.5126  -73.1298 C.3       11 UNK        -0.0857 
     47 S47       -76.3442   25.7571  -71.4732 S.3       11 UNK        -0.2512 
     48 C48       -77.5790   26.6955  -70.5052 C.3       11 UNK         0.0225 
     49 N         -76.0296   24.4633  -74.4852 N.am      5 UNK        -0.4615 
     50 C         -75.3386   23.5756  -75.2125 C.2       4 UNK         0.5053 
     51 O         -74.2294   23.7924  -75.6969 O.2       4 UNK        -0.5105 
     52 CA        -76.0334   22.2336  -75.4925 C.3       4 UNK         0.0263 
     53 CB        -75.9948   21.3253  -74.2526 C.3       4 UNK        -0.1981 
     54 N         -77.4182   22.4101  -75.9355 N.am      4 UNK        -0.4224 
     55 C         -77.7748   23.0092  -77.0812 C.2       3 UNK         0.4895 
     56 O         -76.9730   23.4242  -77.9171 O.2       3 UNK        -0.5091 
     57 CA        -79.2806   23.2110  -77.3213 C.3       3 UNK         0.0250 
     58 CB        -79.8849   21.9793  -78.0140 C.3       3 UNK        -0.1996 
     59 N         -80.0426   23.5146  -76.1044 N.am      3 UNK        -0.4254 
     60 C         -79.8411   24.5843  -75.3220 C.2       2 UNK         0.5004 
     61 O         -78.9397   25.4060  -75.4977 O.2       2 UNK        -0.5226 
     62 CA        -80.7652   24.7246  -74.1029 C.3       2 UNK         0.0269 
     63 CB        -80.0894   24.1291  -72.8565 C.3       2 UNK        -0.1926 
     64 N         -81.1169   26.1193  -73.8300 N.am      2 UNK        -0.4687 
     65 C         -81.8512   26.9090  -74.6290 C.2       1 UNK         0.5165 
     66 O         -82.3325   26.5345  -75.7000 O.2       1 UNK        -0.5079 
     67 H67       -81.4686   28.8393  -70.2092 H         1 UNK         0.0900 
     68 H68       -82.2636   27.3269  -69.7692 H         1 UNK         0.0900 
     69 H69       -83.1849   28.8328  -69.7980 H         1 UNK         0.0900 
     70 H70       -81.1562   29.0564  -72.4107 H         1 UNK         0.2959 
     71 H71       -83.1927   28.5199  -74.3489 H         1 UNK         0.1079 
     72 H72       -81.7310   30.4125  -74.7087 H         1 UNK         0.0837 
     73 H73       -81.5158   29.2875  -76.0078 H         1 UNK         0.0837 
     74 H74       -79.0132   31.5138  -73.6297 H         1 UNK         0.0685 
     75 H75       -80.3328   30.7540  -72.7811 H         1 UNK         0.0685 
     76 H76       -79.1909   28.0178  -72.2163 H         1 UNK         0.1434 
     77 H77       -75.9045   28.6481  -69.5509 H         1 UNK         0.1329 
     78 H78       -77.4191   31.9082  -71.8932 H         1 UNK         0.1335 
     79 H79       -75.4769   31.1378  -68.9516 H         1 UNK         0.0680 
     80 H80       -75.7978   32.3507  -70.1638 H         1 UNK         0.0680 
     81 H81       -73.3044   32.1119  -72.8038 H         1 UNK         0.1032 
     82 H82       -75.0229   32.0610  -72.5673 H         1 UNK         0.1032 
     83 H83       -74.8902   29.4914  -72.9666 H         1 UNK         0.0461 
     84 H84       -76.4567   30.7765  -75.8702 H         1 UNK         0.3453 
     85 H85       -76.6791   30.1519  -74.2587 H         1 UNK         0.3453 
     86 H86       -72.2900   30.0046  -74.2641 H         1 UNK         0.2984 
     87 H87       -70.4042   28.9581  -73.2264 H         1 UNK         0.0554 
     88 H88       -69.3758   26.8387  -72.4465 H         1 UNK         0.0847 
     89 H89       -70.9704   26.1386  -72.1743 H         1 UNK         0.0847 
     90 H90       -70.4423   27.5162  -71.2260 H         1 UNK         0.0847 
     91 H91       -70.3137   28.0976  -75.2546 H         1 UNK         0.3141 
     92 H92       -70.8025   27.0321  -77.0954 H         1 UNK         0.0743 
     93 H93       -70.1507   24.1484  -76.2433 H         1 UNK         0.0784 
     94 H94       -69.5923   24.9383  -77.7172 H         1 UNK         0.0784 
     95 H95       -69.0273   25.4986  -76.1533 H         1 UNK         0.0784 
     96 H96       -72.9812   25.1818  -76.6706 H         1 UNK         0.3213 
     97 H97       -73.8130   25.3046  -80.2140 H         1 UNK         0.0855 
     98 H98       -73.7069   23.0576  -78.1352 H         1 UNK         0.0814 
     99 H99       -72.9316   23.0438  -79.7104 H         1 UNK         0.0814 
    100 H100      -74.6846   23.0688  -79.5998 H         1 UNK         0.0814 
    101 H101      -75.4098   24.9003  -77.8535 H         1 UNK         0.3105 
    102 H102      -76.3817   28.3039  -77.4650 H         1 UNK         0.0547 
    103 H103      -77.9155   27.5548  -79.2635 H         1 UNK         0.0837 
    104 H104      -78.0071   25.9486  -78.5572 H         1 UNK         0.0837 
    105 H105      -78.6704   27.3343  -77.6912 H         1 UNK         0.0837 
    106 H106      -77.2783   25.9905  -76.1101 H         1 UNK         0.3020 
    107 H107      -74.5695   25.7550  -73.7666 H         1 UNK         0.1245 
    108 H108      -76.1798   27.5579  -73.0329 H         1 UNK         0.0781 
    109 H109      -77.5193   26.5120  -73.4494 H         1 UNK         0.0781 
    110 H110      -78.5683   26.2745  -70.6899 H         1 UNK         0.0836 
    111 H111      -77.3826   26.5496  -69.4421 H         1 UNK         0.0836 
    112 H112      -76.9524   24.2181  -74.1617 H         1 UNK         0.3022 
    113 H113      -75.4850   21.7369  -76.2961 H         1 UNK         0.0747 
    114 H114      -76.4105   20.3411  -74.4692 H         1 UNK         0.0793 
    115 H115      -74.9687   21.1743  -73.9141 H         1 UNK         0.0793 
    116 H116      -76.5537   21.7501  -73.4177 H         1 UNK         0.0793 
    117 H117      -78.1464   22.0921  -75.3134 H         1 UNK         0.3047 
    118 H118      -79.3908   24.0642  -77.9933 H         1 UNK         0.0822 
    119 H119      -80.9271   22.1477  -78.2861 H         1 UNK         0.0807 
    120 H120      -79.8414   21.0938  -77.3786 H         1 UNK         0.0807 
    121 H121      -79.3466   21.7466  -78.9342 H         1 UNK         0.0807 
    122 H122      -80.7952   22.8801  -75.8776 H         1 UNK         0.2946 
    123 H123      -81.6924   24.1809  -74.2974 H         1 UNK         0.1144 
    124 H124      -79.8504   23.0752  -73.0049 H         1 UNK         0.0793 
    125 H125      -80.7398   24.1907  -71.9837 H         1 UNK         0.0793 
    126 H126      -79.1578   24.6433  -72.6176 H         1 UNK         0.0793 
    127 H127      -80.7658   26.5168  -72.9739 H         1 UNK         0.2896 
@<TRIPOS>BOND
     1    1    2 1    
     2    1   67 1    
     3    1   68 1    
     4    1   69 1    
     5    2    3 2    
     6    2    4 am   BACKBONE|DICT|INTERRES
     7    4    5 1    
     8    4   70 1    
     9    5    6 1    
    10    5   65 1    
    11    5   71 1    
    12    6    7 1    
    13    6   72 1    
    14    6   73 1    
    15    7    8 1    
    16    8    9 1    
    17    8   74 1    
    18    8   75 1    
    19    9   10 ar   
    20    9   14 ar   
    21   10   11 ar   
    22   10   76 1    
    23   11   12 ar   
    24   11   48 1    
    25   12   13 ar   
    26   12   77 1    
    27   13   14 ar   
    28   13   15 1    
    29   14   78 1    
    30   15   16 1    
    31   15   79 1    
    32   15   80 1    
    33   16   17 1    
    34   17   18 1    
    35   17   81 1    
    36   17   82 1    
    37   18   19 1    
    38   18   22 1    
    39   18   83 1    
    40   19   20 am   BACKBONE|DICT|INTERRES
    41   19   21 2    
    42   20   84 1    
    43   20   85 1    
    44   22   23 am   BACKBONE|DICT|INTERRES
    45   22   86 1    
    46   23   24 2    
    47   23   25 1    
    48   25   26 1    
    49   25   27 1    
    50   25   87 1    
    51   26   88 1    
    52   26   89 1    
    53   26   90 1    
    54   27   28 am   BACKBONE|DICT|INTERRES
    55   27   91 1    
    56   28   29 2    
    57   28   30 1    
    58   30   31 1    
    59   30   32 1    
    60   30   92 1    
    61   31   93 1    
    62   31   94 1    
    63   31   95 1    
    64   32   33 am   BACKBONE|DICT|INTERRES
    65   32   96 1    
    66   33   34 2    
    67   33   35 1    
    68   35   36 1    
    69   35   37 1    
    70   35   97 1    
    71   36   98 1    
    72   36   99 1    
    73   36  100 1    
    74   37   38 am   BACKBONE|DICT|INTERRES
    75   37  101 1    
    76   38   39 2    
    77   38   40 1    
    78   40   41 1    
    79   40   42 1    
    80   40  102 1    
    81   41  103 1    
    82   41  104 1    
    83   41  105 1    
    84   42   43 am   BACKBONE|DICT|INTERRES
    85   42  106 1    
    86   43   44 2    
    87   43   45 1    
    88   45   46 1    
    89   45   49 1    
    90   45  107 1    
    91   46   47 1    
    92   46  108 1    
    93   46  109 1    
    94   47   48 1    
    95   48  110 1    
    96   48  111 1    
    97   49   50 am   BACKBONE|DICT|INTERRES
    98   49  112 1    
    99   50   51 2    
   100   50   52 1    
   101   52   53 1    
   102   52   54 1    
   103   52  113 1    
   104   53  114 1    
   105   53  115 1    
   106   53  116 1    
   107   54   55 am   BACKBONE|DICT|INTERRES
   108   54  117 1    
   109   55   56 2    
   110   55   57 1    
   111   57   58 1    
   112   57   59 1    
   113   57  118 1    
   114   58  119 1    
   115   58  120 1    
   116   58  121 1    
   117   59   60 am   BACKBONE|DICT|INTERRES
   118   59  122 1    
   119   60   61 2    
   120   60   62 1    
   121   62   63 1    
   122   62   64 1    
   123   62  123 1    
   124   63  124 1    
   125   63  125 1    
   126   63  126 1    
   127   64   65 am   BACKBONE|DICT|INTERRES
   128   64  127 1    
   129   65   66 2    
@<TRIPOS>SUBSTRUCTURE
     1 UNK         1 GROUP             0       ****    0 ROOT    
