@<TRIPOS>MOLECULE
3R135
127   129    1
SMALL
USER_CHARGES


@<TRIPOS>ATOM
      1 CA        -77.5102   29.9482  -75.9432 C.3       0 UNK        -0.1998 
      2 C         -78.8978   29.6632  -75.3843 C.2       0 UNK         0.4909 
      3 O         -79.8712   30.2476  -75.8579 O.2       0 UNK        -0.5240 
      4 N         -78.9801   28.7880  -74.3725 N.am      1 UNK        -0.4739 
      5 CA        -80.1885   28.3924  -73.6398 C.3       1 UNK         0.0864 
      6 C6        -80.8552   29.5803  -72.8786 C.3       11 UNK        -0.0881 
      7 S7        -81.4504   29.0846  -71.2237 S.3       11 UNK        -0.2682 
      8 C8        -80.0474   29.5688  -70.1567 C.3       11 UNK         0.0289 
      9 C9        -78.7456   28.9350  -70.6257 C.ar      11 UNK        -0.0687 
     10 C10       -78.5404   27.5610  -70.4740 C.ar      11 UNK        -0.0823 
     11 C11       -77.4110   26.9509  -71.0259 C.ar      11 UNK        -0.0830 
     12 C12       -76.4631   27.7278  -71.6985 C.ar      11 UNK        -0.1021 
     13 C13       -76.6398   29.1083  -71.8217 C.ar      11 UNK        -0.0753 
     14 C14       -77.7796   29.7077  -71.2781 C.ar      11 UNK        -0.0933 
     15 C15       -75.6252   29.9509  -72.5753 C.3       11 UNK         0.0166 
     16 S16       -74.3136   30.5488  -71.4646 S.3       11 UNK        -0.2615 
     17 C17       -73.9500   32.1976  -72.1704 C.3       11 UNK        -0.0865 
     18 CA        -72.7396   32.2288  -73.1406 C.3       10 UNK         0.0862 
     19 C         -71.3717   32.1185  -72.4021 C.2       10 UNK         0.5551 
     20 N         -70.4964   31.1779  -72.7370 N.am      10 UNK        -0.7319 
     21 O         -71.0902   32.9212  -71.5154 O.2       10 UNK        -0.5018 
     22 N         -72.9215   31.2860  -74.2534 N.am      10 UNK        -0.4509 
     23 C         -72.4185   31.4362  -75.4835 C.2       10 UNK         0.4899 
     24 O         -71.8158   32.4443  -75.8559 O.2       10 UNK        -0.4839 
     25 CA        -72.6280   30.2575  -76.4584 C.3       9 UNK         0.0222 
     26 CB        -71.6200   30.2731  -77.6265 C.3       9 UNK        -0.1966 
     27 N         -72.6357   28.9315  -75.8218 N.am      9 UNK        -0.4218 
     28 C         -71.6742   28.3957  -75.0476 C.2       9 UNK         0.5020 
     29 O         -70.6754   29.0093  -74.6704 O.2       9 UNK        -0.5274 
     30 CA        -71.8493   26.9292  -74.6059 C.3       8 UNK         0.0270 
     31 CB        -72.4651   26.8737  -73.1988 C.3       8 UNK        -0.1976 
     32 N         -72.6680   26.1354  -75.5265 N.am      8 UNK        -0.4313 
     33 C         -72.3515   25.8820  -76.8073 C.2       8 UNK         0.5041 
     34 O         -71.2564   26.1535  -77.3015 O.2       8 UNK        -0.5577 
     35 CA        -73.4352   25.2580  -77.7099 C.3       7 UNK         0.0284 
     36 CB        -73.0792   23.8021  -78.0501 C.3       7 UNK        -0.1958 
     37 N         -74.7922   25.3096  -77.1553 N.am      7 UNK        -0.4454 
     38 C         -75.4736   26.4265  -76.8551 C.2       7 UNK         0.5089 
     39 O         -75.0399   27.5640  -77.0433 O.2       7 UNK        -0.5125 
     40 CA        -76.8379   26.2535  -76.1628 C.3       6 UNK         0.0408 
     41 CB        -77.9737   26.3886  -77.1877 C.3       6 UNK        -0.1791 
     42 N         -76.9918   24.9977  -75.4216 N.am      6 UNK        -0.4762 
     43 C         -76.1968   24.5705  -74.4262 C.2       6 UNK         0.5007 
     44 O         -75.2277   25.2066  -74.0078 O.2       6 UNK        -0.5032 
     45 CA        -76.4959   23.1670  -73.8506 C.3       5 UNK         0.0783 
     46 C46       -77.3273   23.1332  -72.5274 C.3       11 UNK        -0.0857 
     47 S47       -78.3368   24.6018  -72.1111 S.3       11 UNK        -0.2512 
     48 C48       -77.2361   25.4463  -70.9320 C.3       11 UNK         0.0225 
     49 N         -77.0525   22.2720  -74.8744 N.am      5 UNK        -0.4615 
     50 C         -76.3511   21.7854  -75.9103 C.2       4 UNK         0.5053 
     51 O         -75.1657   22.0498  -76.1046 O.2       4 UNK        -0.5105 
     52 CA        -77.0697   20.8494  -76.8977 C.3       4 UNK         0.0263 
     53 CB        -76.7045   19.3847  -76.6065 C.3       4 UNK        -0.1981 
     54 N         -78.5256   20.9928  -76.8778 N.am      4 UNK        -0.4224 
     55 C         -79.1988   22.0163  -77.4190 C.2       3 UNK         0.4895 
     56 O         -78.6611   22.9270  -78.0516 O.2       3 UNK        -0.5091 
     57 CA        -80.7295   22.0334  -77.2197 C.3       3 UNK         0.0250 
     58 CB        -81.2493   20.9571  -76.2376 C.3       3 UNK        -0.1996 
     59 N         -81.2442   23.3487  -76.8176 N.am      3 UNK        -0.4254 
     60 C         -80.8161   24.1093  -75.7992 C.2       2 UNK         0.5004 
     61 O         -79.8379   23.8483  -75.0934 O.2       2 UNK        -0.5226 
     62 CA        -81.6566   25.3550  -75.4983 C.3       2 UNK         0.0269 
     63 CB        -82.9474   24.9632  -74.7504 C.3       2 UNK        -0.1926 
     64 N         -80.8746   26.2891  -74.6908 N.am      2 UNK        -0.4687 
     65 C         -81.1590   27.5873  -74.5292 C.2       1 UNK         0.5165 
     66 O         -82.1240   28.1378  -75.0643 O.2       1 UNK        -0.5079 
     67 H67       -77.4535   29.6442  -76.9879 H         1 UNK         0.0900 
     68 H68       -77.2985   31.0158  -75.8900 H         1 UNK         0.0900 
     69 H69       -76.7275   29.4253  -75.3959 H         1 UNK         0.0900 
     70 H70       -78.1329   28.3580  -74.0298 H         1 UNK         0.2959 
     71 H71       -79.8235   27.6836  -72.8965 H         1 UNK         0.1079 
     72 H72       -81.6807   30.0208  -73.4398 H         1 UNK         0.0837 
     73 H73       -80.1469   30.3991  -72.7476 H         1 UNK         0.0837 
     74 H74       -80.2549   29.2609  -69.1310 H         1 UNK         0.0685 
     75 H75       -79.9666   30.6569  -70.1420 H         1 UNK         0.0685 
     76 H76       -79.2901   26.9575  -69.9801 H         1 UNK         0.1434 
     77 H77       -75.5939   27.2556  -72.1350 H         1 UNK         0.1329 
     78 H78       -77.9322   30.7716  -71.3973 H         1 UNK         0.1335 
     79 H79       -75.1748   29.3673  -73.3793 H         1 UNK         0.0680 
     80 H80       -76.1371   30.7863  -73.0546 H         1 UNK         0.0680 
     81 H81       -73.7908   32.8915  -71.3427 H         1 UNK         0.1032 
     82 H82       -74.8332   32.5811  -72.6822 H         1 UNK         0.1032 
     83 H83       -72.7319   33.2318  -73.5718 H         1 UNK         0.0461 
     84 H84       -69.6165   31.1339  -72.2490 H         1 UNK         0.3453 
     85 H85       -70.6928   30.5073  -73.4744 H         1 UNK         0.3453 
     86 H86       -73.3613   30.4107  -74.0159 H         1 UNK         0.2984 
     87 H87       -73.6245   30.3916  -76.8817 H         1 UNK         0.0554 
     88 H88       -71.6940   31.1978  -78.2002 H         1 UNK         0.0847 
     89 H89       -71.8020   29.4500  -78.3176 H         1 UNK         0.0847 
     90 H90       -70.5922   30.1902  -77.2712 H         1 UNK         0.0847 
     91 H91       -73.4211   28.3415  -76.0817 H         1 UNK         0.3141 
     92 H92       -70.8566   26.4761  -74.5674 H         1 UNK         0.0743 
     93 H93       -71.8528   27.4217  -72.4810 H         1 UNK         0.0784 
     94 H94       -73.4618   27.3148  -73.1794 H         1 UNK         0.0784 
     95 H95       -72.5465   25.8476  -72.8394 H         1 UNK         0.0784 
     96 H96       -73.5753   25.8384  -75.1818 H         1 UNK         0.3213 
     97 H97       -73.4448   25.8329  -78.6383 H         1 UNK         0.0855 
     98 H98       -73.0026   23.1872  -77.1528 H         1 UNK         0.0814 
     99 H99       -72.1179   23.7461  -78.5627 H         1 UNK         0.0814 
    100 H100      -73.8225   23.3496  -78.7068 H         1 UNK         0.0814 
    101 H101      -75.2177   24.4211  -76.9262 H         1 UNK         0.3105 
    102 H102      -76.9296   27.0591  -75.4348 H         1 UNK         0.0547 
    103 H103      -77.9788   25.5581  -77.8942 H         1 UNK         0.0837 
    104 H104      -77.8743   27.3063  -77.7685 H         1 UNK         0.0837 
    105 H105      -78.9473   26.4223  -76.7026 H         1 UNK         0.0837 
    106 H106      -77.7891   24.4182  -75.6609 H         1 UNK         0.3020 
    107 H107      -75.5142   22.7564  -73.6005 H         1 UNK         0.1245 
    108 H108      -76.6520   22.9437  -71.6916 H         1 UNK         0.0781 
    109 H109      -77.9991   22.2734  -72.5234 H         1 UNK         0.0781 
    110 H110      -76.1962   25.1834  -71.1334 H         1 UNK         0.0836 
    111 H111      -77.4525   25.1027  -69.9195 H         1 UNK         0.0836 
    112 H112      -78.0415   22.0750  -74.8102 H         1 UNK         0.3022 
    113 H113      -76.7120   21.0965  -77.8998 H         1 UNK         0.0747 
    114 H114      -77.1470   18.7114  -77.3409 H         1 UNK         0.0793 
    115 H115      -75.6241   19.2372  -76.6449 H         1 UNK         0.0793 
    116 H116      -77.0405   19.0723  -75.6168 H         1 UNK         0.0793 
    117 H117      -79.0465   20.2855  -76.3795 H         1 UNK         0.3047 
    118 H118      -81.1588   21.8221  -78.2002 H         1 UNK         0.0822 
    119 H119      -82.3348   21.0047  -76.1477 H         1 UNK         0.0807 
    120 H120      -80.8349   21.0833  -75.2362 H         1 UNK         0.0807 
    121 H121      -81.0105   19.9493  -76.5799 H         1 UNK         0.0807 
    122 H122      -82.0329   23.6799  -77.3554 H         1 UNK         0.2946 
    123 H123      -81.9099   25.8348  -76.4466 H         1 UNK         0.1144 
    124 H124      -83.5851   25.8281  -74.5674 H         1 UNK         0.0793 
    125 H125      -82.7260   24.5020  -73.7870 H         1 UNK         0.0793 
    126 H126      -83.5379   24.2490  -75.3256 H         1 UNK         0.0793 
    127 H127      -80.0546   25.8769  -74.2599 H         1 UNK         0.2896 
@<TRIPOS>BOND
     1    1    2 1    
     2    1   67 1    
     3    1   68 1    
     4    1   69 1    
     5    2    3 2    
     6    2    4 am   BACKBONE|DICT|INTERRES
     7    4    5 1    
     8    4   70 1    
     9    5    6 1    
    10    5   65 1    
    11    5   71 1    
    12    6    7 1    
    13    6   72 1    
    14    6   73 1    
    15    7    8 1    
    16    8    9 1    
    17    8   74 1    
    18    8   75 1    
    19    9   10 ar   
    20    9   14 ar   
    21   10   11 ar   
    22   10   76 1    
    23   11   12 ar   
    24   11   48 1    
    25   12   13 ar   
    26   12   77 1    
    27   13   14 ar   
    28   13   15 1    
    29   14   78 1    
    30   15   16 1    
    31   15   79 1    
    32   15   80 1    
    33   16   17 1    
    34   17   18 1    
    35   17   81 1    
    36   17   82 1    
    37   18   19 1    
    38   18   22 1    
    39   18   83 1    
    40   19   20 am   BACKBONE|DICT|INTERRES
    41   19   21 2    
    42   20   84 1    
    43   20   85 1    
    44   22   23 am   BACKBONE|DICT|INTERRES
    45   22   86 1    
    46   23   24 2    
    47   23   25 1    
    48   25   26 1    
    49   25   27 1    
    50   25   87 1    
    51   26   88 1    
    52   26   89 1    
    53   26   90 1    
    54   27   28 am   BACKBONE|DICT|INTERRES
    55   27   91 1    
    56   28   29 2    
    57   28   30 1    
    58   30   31 1    
    59   30   32 1    
    60   30   92 1    
    61   31   93 1    
    62   31   94 1    
    63   31   95 1    
    64   32   33 am   BACKBONE|DICT|INTERRES
    65   32   96 1    
    66   33   34 2    
    67   33   35 1    
    68   35   36 1    
    69   35   37 1    
    70   35   97 1    
    71   36   98 1    
    72   36   99 1    
    73   36  100 1    
    74   37   38 am   BACKBONE|DICT|INTERRES
    75   37  101 1    
    76   38   39 2    
    77   38   40 1    
    78   40   41 1    
    79   40   42 1    
    80   40  102 1    
    81   41  103 1    
    82   41  104 1    
    83   41  105 1    
    84   42   43 am   BACKBONE|DICT|INTERRES
    85   42  106 1    
    86   43   44 2    
    87   43   45 1    
    88   45   46 1    
    89   45   49 1    
    90   45  107 1    
    91   46   47 1    
    92   46  108 1    
    93   46  109 1    
    94   47   48 1    
    95   48  110 1    
    96   48  111 1    
    97   49   50 am   BACKBONE|DICT|INTERRES
    98   49  112 1    
    99   50   51 2    
   100   50   52 1    
   101   52   53 1    
   102   52   54 1    
   103   52  113 1    
   104   53  114 1    
   105   53  115 1    
   106   53  116 1    
   107   54   55 am   BACKBONE|DICT|INTERRES
   108   54  117 1    
   109   55   56 2    
   110   55   57 1    
   111   57   58 1    
   112   57   59 1    
   113   57  118 1    
   114   58  119 1    
   115   58  120 1    
   116   58  121 1    
   117   59   60 am   BACKBONE|DICT|INTERRES
   118   59  122 1    
   119   60   61 2    
   120   60   62 1    
   121   62   63 1    
   122   62   64 1    
   123   62  123 1    
   124   63  124 1    
   125   63  125 1    
   126   63  126 1    
   127   64   65 am   BACKBONE|DICT|INTERRES
   128   64  127 1    
   129   65   66 2    
@<TRIPOS>SUBSTRUCTURE
     1 UNK         1 GROUP             0       ****    0 ROOT    
