@<TRIPOS>MOLECULE
3R135
127   129    1
SMALL
USER_CHARGES


@<TRIPOS>ATOM
      1 CA        -83.9414   24.3508  -70.8826 C.3       0 UNK        -0.1998 
      2 C         -83.6939   25.7521  -71.4205 C.2       0 UNK         0.4909 
      3 O         -84.6266   26.5519  -71.4987 O.2       0 UNK        -0.5240 
      4 N         -82.4434   26.0549  -71.7963 N.am      1 UNK        -0.4739 
      5 CA        -82.0274   27.3536  -72.3463 C.3       1 UNK         0.0864 
      6 C6        -80.4981   27.5686  -72.1765 C.3       11 UNK        -0.0881 
      7 S7        -80.0692   29.3334  -71.9815 S.3       11 UNK        -0.2682 
      8 C8        -79.2457   29.3597  -70.3587 C.3       11 UNK         0.0289 
      9 C9        -77.7843   28.9533  -70.4738 C.ar      11 UNK        -0.0687 
     10 C10       -77.3922   27.6314  -70.2432 C.ar      11 UNK        -0.0823 
     11 C11       -76.0489   27.2608  -70.3583 C.ar      11 UNK        -0.0830 
     12 C12       -75.0924   28.2262  -70.6859 C.ar      11 UNK        -0.1021 
     13 C13       -75.4723   29.5516  -70.9140 C.ar      11 UNK        -0.0753 
     14 C14       -76.8198   29.9085  -70.8086 C.ar      11 UNK        -0.0933 
     15 C15       -74.4234   30.6016  -71.2508 C.3       11 UNK         0.0166 
     16 S16       -73.6392   30.3118  -72.8675 S.3       11 UNK        -0.2615 
     17 C17       -75.0142   30.6095  -74.0344 C.3       11 UNK        -0.0865 
     18 CA        -75.2607   29.4075  -74.9939 C.3       10 UNK         0.0862 
     19 C         -76.5328   29.5982  -75.8750 C.2       10 UNK         0.5551 
     20 N         -76.5445   29.1547  -77.1264 N.am      10 UNK        -0.7319 
     21 O         -77.5386   30.1290  -75.4123 O.2       10 UNK        -0.5018 
     22 N         -74.0543   28.9998  -75.7395 N.am      10 UNK        -0.4509 
     23 C         -73.3528   29.7536  -76.6005 C.2       10 UNK         0.4899 
     24 O         -73.6576   30.9064  -76.9100 O.2       10 UNK        -0.4839 
     25 CA        -72.1116   29.0965  -77.2398 C.3       9 UNK         0.0222 
     26 CB        -71.1132   30.1186  -77.8245 C.3       9 UNK        -0.1966 
     27 N         -71.4459   28.1480  -76.3399 N.am      9 UNK        -0.4218 
     28 C         -70.8463   28.4088  -75.1658 C.2       9 UNK         0.5020 
     29 O         -70.6236   29.5443  -74.7451 O.2       9 UNK        -0.5274 
     30 CA        -70.4462   27.2042  -74.2913 C.3       8 UNK         0.0270 
     31 CB        -71.2099   27.2378  -72.9543 C.3       8 UNK        -0.1976 
     32 N         -70.7191   25.9251  -74.9519 N.am      8 UNK        -0.4313 
     33 C         -69.8273   25.2202  -75.6619 C.2       8 UNK         0.5041 
     34 O         -68.6397   25.5281  -75.7685 O.2       8 UNK        -0.5577 
     35 CA        -70.3466   23.9696  -76.3990 C.3       7 UNK         0.0284 
     36 CB        -70.1052   22.7093  -75.5526 C.3       7 UNK        -0.1958 
     37 N         -71.7667   24.0446  -76.7604 N.am      7 UNK        -0.4454 
     38 C         -72.2952   24.9255  -77.6222 C.2       7 UNK         0.5089 
     39 O         -71.6321   25.7526  -78.2460 O.2       7 UNK        -0.5125 
     40 CA        -73.8280   24.9409  -77.7531 C.3       6 UNK         0.0408 
     41 CB        -74.2851   24.0315  -78.9031 C.3       6 UNK        -0.1791 
     42 N         -74.5313   24.5614  -76.5235 N.am      6 UNK        -0.4762 
     43 C         -74.4522   25.1996  -75.3475 C.2       6 UNK         0.5007 
     44 O         -73.7230   26.1768  -75.1627 O.2       6 UNK        -0.5032 
     45 CA        -75.3314   24.6516  -74.2027 C.3       5 UNK         0.0783 
     46 C46       -75.2075   25.4877  -72.9049 C.3       11 UNK        -0.0857 
     47 S47       -76.1460   24.7511  -71.5245 S.3       11 UNK        -0.2512 
     48 C48       -75.6331   25.8142  -70.1389 C.3       11 UNK         0.0225 
     49 N         -76.7274   24.5236  -74.6356 N.am      5 UNK        -0.4615 
     50 C         -77.2343   23.4920  -75.3211 C.2       4 UNK         0.5053 
     51 O         -76.5613   22.5345  -75.7040 O.2       4 UNK        -0.5105 
     52 CA        -78.7318   23.5499  -75.6594 C.3       4 UNK         0.0263 
     53 CB        -79.5640   22.9358  -74.5218 C.3       4 UNK        -0.1981 
     54 N         -79.2175   24.9045  -75.9341 N.am      4 UNK        -0.4224 
     55 C         -78.8783   25.6474  -76.9989 C.2       3 UNK         0.4895 
     56 O         -78.0540   25.2908  -77.8422 O.2       3 UNK        -0.5091 
     57 CA        -79.5864   27.0133  -77.1427 C.3       3 UNK         0.0250 
     58 CB        -79.6315   27.5086  -78.6039 C.3       3 UNK        -0.1996 
     59 N         -80.9263   27.0542  -76.5364 N.am      3 UNK        -0.4254 
     60 C         -81.9877   26.2861  -76.8327 C.2       2 UNK         0.5004 
     61 O         -81.9962   25.4470  -77.7346 O.2       2 UNK        -0.5226 
     62 CA        -83.2241   26.4507  -75.9249 C.3       2 UNK         0.0269 
     63 CB        -84.2728   25.3434  -76.1441 C.3       2 UNK        -0.1926 
     64 N         -82.8476   26.4659  -74.5063 N.am      2 UNK        -0.4687 
     65 C         -82.4647   27.5512  -73.8180 C.2       1 UNK         0.5165 
     66 O         -82.4122   28.6712  -74.3265 O.2       1 UNK        -0.5079 
     67 H67       -84.3264   24.4029  -69.8646 H         1 UNK         0.0900 
     68 H68       -83.0315   23.7510  -70.8703 H         1 UNK         0.0900 
     69 H69       -84.6780   23.8369  -71.4995 H         1 UNK         0.0900 
     70 H70       -81.7169   25.3589  -71.7024 H         1 UNK         0.2959 
     71 H71       -82.5467   28.1218  -71.7679 H         1 UNK         0.1079 
     72 H72       -79.9314   27.1520  -73.0115 H         1 UNK         0.0837 
     73 H73       -80.1446   27.0341  -71.2944 H         1 UNK         0.0837 
     74 H74       -79.3108   30.3700  -69.9519 H         1 UNK         0.0685 
     75 H75       -79.7768   28.7176  -69.6543 H         1 UNK         0.0685 
     76 H76       -78.1309   26.8848  -69.9868 H         1 UNK         0.1434 
     77 H77       -74.0509   27.9482  -70.7756 H         1 UNK         0.1329 
     78 H78       -77.1219   30.9317  -70.9860 H         1 UNK         0.1335 
     79 H79       -73.6507   30.5886  -70.4810 H         1 UNK         0.0680 
     80 H80       -74.8521   31.6050  -71.2359 H         1 UNK         0.0680 
     81 H81       -74.7969   31.5161  -74.6005 H         1 UNK         0.1032 
     82 H82       -75.9192   30.8283  -73.4658 H         1 UNK         0.1032 
     83 H83       -75.4995   28.5498  -74.3649 H         1 UNK         0.0461 
     84 H84       -75.7266   28.7174  -77.5174 H         1 UNK         0.3453 
     85 H85       -77.3642   29.2982  -77.6926 H         1 UNK         0.3453 
     86 H86       -73.7463   28.0486  -75.5591 H         1 UNK         0.2984 
     87 H87       -72.4874   28.4995  -78.0717 H         1 UNK         0.0554 
     88 H88       -70.2486   29.6221  -78.2646 H         1 UNK         0.0847 
     89 H89       -70.7524   30.8143  -77.0665 H         1 UNK         0.0847 
     90 H90       -71.5794   30.7128  -78.6113 H         1 UNK         0.0847 
     91 H91       -71.5232   27.1783  -76.6198 H         1 UNK         0.3141 
     92 H92       -69.3792   27.2935  -74.0769 H         1 UNK         0.0743 
     93 H93       -72.2901   27.2244  -73.1044 H         1 UNK         0.0784 
     94 H94       -70.9460   26.3902  -72.3219 H         1 UNK         0.0784 
     95 H95       -70.9762   28.1444  -72.3943 H         1 UNK         0.0784 
     96 H96       -71.6869   25.6244  -74.9423 H         1 UNK         0.3213 
     97 H97       -69.7731   23.8766  -77.3240 H         1 UNK         0.0855 
     98 H98       -70.6701   22.7332  -74.6198 H         1 UNK         0.0814 
     99 H99       -69.0503   22.6119  -75.2914 H         1 UNK         0.0814 
    100 H100      -70.3863   21.8061  -76.0945 H         1 UNK         0.0814 
    101 H101      -72.3927   23.4010  -76.2983 H         1 UNK         0.3105 
    102 H102      -74.1236   25.9646  -77.9924 H         1 UNK         0.0547 
    103 H103      -74.0503   22.9842  -78.7094 H         1 UNK         0.0837 
    104 H104      -75.3606   24.1105  -79.0653 H         1 UNK         0.0837 
    105 H105      -73.7967   24.3088  -79.8384 H         1 UNK         0.0837 
    106 H106      -75.1647   23.7703  -76.5811 H         1 UNK         0.3020 
    107 H107      -74.9453   23.6542  -73.9785 H         1 UNK         0.1245 
    108 H108      -74.1632   25.5685  -72.5973 H         1 UNK         0.0781 
    109 H109      -75.5632   26.5061  -73.0692 H         1 UNK         0.0781 
    110 H110      -76.0854   25.4419  -69.2186 H         1 UNK         0.0836 
    111 H111      -74.5533   25.7343  -70.0027 H         1 UNK         0.0836 
    112 H112      -77.3440   25.2780  -74.3756 H         1 UNK         0.3022 
    113 H113      -78.8884   22.9513  -76.5595 H         1 UNK         0.0747 
    114 H114      -80.6224   22.8951  -74.7808 H         1 UNK         0.0793 
    115 H115      -79.2444   21.9136  -74.3141 H         1 UNK         0.0793 
    116 H116      -79.4644   23.5019  -73.5946 H         1 UNK         0.0793 
    117 H117      -79.9134   25.2730  -75.3044 H         1 UNK         0.3047 
    118 H118      -78.9812   27.7198  -76.5738 H         1 UNK         0.0822 
    119 H119      -80.1029   28.4887  -78.6763 H         1 UNK         0.0807 
    120 H120      -80.1842   26.8220  -79.2459 H         1 UNK         0.0807 
    121 H121      -78.6274   27.6018  -79.0194 H         1 UNK         0.0807 
    122 H122      -81.0506   27.7320  -75.7931 H         1 UNK         0.2946 
    123 H123      -83.6878   27.4041  -76.1896 H         1 UNK         0.1144 
    124 H124      -85.1452   25.4925  -75.5075 H         1 UNK         0.0793 
    125 H125      -83.8666   24.3538  -75.9310 H         1 UNK         0.0793 
    126 H126      -84.6261   25.3367  -77.1761 H         1 UNK         0.0793 
    127 H127      -82.8553   25.5782  -74.0250 H         1 UNK         0.2896 
@<TRIPOS>BOND
     1    1    2 1    
     2    1   67 1    
     3    1   68 1    
     4    1   69 1    
     5    2    3 2    
     6    2    4 am   BACKBONE|DICT|INTERRES
     7    4    5 1    
     8    4   70 1    
     9    5    6 1    
    10    5   65 1    
    11    5   71 1    
    12    6    7 1    
    13    6   72 1    
    14    6   73 1    
    15    7    8 1    
    16    8    9 1    
    17    8   74 1    
    18    8   75 1    
    19    9   10 ar   
    20    9   14 ar   
    21   10   11 ar   
    22   10   76 1    
    23   11   12 ar   
    24   11   48 1    
    25   12   13 ar   
    26   12   77 1    
    27   13   14 ar   
    28   13   15 1    
    29   14   78 1    
    30   15   16 1    
    31   15   79 1    
    32   15   80 1    
    33   16   17 1    
    34   17   18 1    
    35   17   81 1    
    36   17   82 1    
    37   18   19 1    
    38   18   22 1    
    39   18   83 1    
    40   19   20 am   BACKBONE|DICT|INTERRES
    41   19   21 2    
    42   20   84 1    
    43   20   85 1    
    44   22   23 am   BACKBONE|DICT|INTERRES
    45   22   86 1    
    46   23   24 2    
    47   23   25 1    
    48   25   26 1    
    49   25   27 1    
    50   25   87 1    
    51   26   88 1    
    52   26   89 1    
    53   26   90 1    
    54   27   28 am   BACKBONE|DICT|INTERRES
    55   27   91 1    
    56   28   29 2    
    57   28   30 1    
    58   30   31 1    
    59   30   32 1    
    60   30   92 1    
    61   31   93 1    
    62   31   94 1    
    63   31   95 1    
    64   32   33 am   BACKBONE|DICT|INTERRES
    65   32   96 1    
    66   33   34 2    
    67   33   35 1    
    68   35   36 1    
    69   35   37 1    
    70   35   97 1    
    71   36   98 1    
    72   36   99 1    
    73   36  100 1    
    74   37   38 am   BACKBONE|DICT|INTERRES
    75   37  101 1    
    76   38   39 2    
    77   38   40 1    
    78   40   41 1    
    79   40   42 1    
    80   40  102 1    
    81   41  103 1    
    82   41  104 1    
    83   41  105 1    
    84   42   43 am   BACKBONE|DICT|INTERRES
    85   42  106 1    
    86   43   44 2    
    87   43   45 1    
    88   45   46 1    
    89   45   49 1    
    90   45  107 1    
    91   46   47 1    
    92   46  108 1    
    93   46  109 1    
    94   47   48 1    
    95   48  110 1    
    96   48  111 1    
    97   49   50 am   BACKBONE|DICT|INTERRES
    98   49  112 1    
    99   50   51 2    
   100   50   52 1    
   101   52   53 1    
   102   52   54 1    
   103   52  113 1    
   104   53  114 1    
   105   53  115 1    
   106   53  116 1    
   107   54   55 am   BACKBONE|DICT|INTERRES
   108   54  117 1    
   109   55   56 2    
   110   55   57 1    
   111   57   58 1    
   112   57   59 1    
   113   57  118 1    
   114   58  119 1    
   115   58  120 1    
   116   58  121 1    
   117   59   60 am   BACKBONE|DICT|INTERRES
   118   59  122 1    
   119   60   61 2    
   120   60   62 1    
   121   62   63 1    
   122   62   64 1    
   123   62  123 1    
   124   63  124 1    
   125   63  125 1    
   126   63  126 1    
   127   64   65 am   BACKBONE|DICT|INTERRES
   128   64  127 1    
   129   65   66 2    
@<TRIPOS>SUBSTRUCTURE
     1 UNK         1 GROUP             0       ****    0 ROOT    
