@<TRIPOS>MOLECULE
3R135
127   129    1
SMALL
USER_CHARGES


@<TRIPOS>ATOM
      1 CA        -81.2705   23.0520  -68.1441 C.3       0 UNK        -0.1998 
      2 C         -81.0692   23.7660  -69.4723 C.2       0 UNK         0.4909 
      3 O         -80.5140   23.1710  -70.3951 O.2       0 UNK        -0.5240 
      4 N         -81.5385   25.0204  -69.5617 N.am      1 UNK        -0.4739 
      5 CA        -81.4862   26.0053  -70.6621 C.3       1 UNK         0.0864 
      6 C6        -80.1361   26.7627  -70.7953 C.3       11 UNK        -0.0881 
      7 S7        -78.6603   25.7519  -71.1628 S.3       11 UNK        -0.2682 
      8 C8        -78.3516   26.1380  -72.9164 C.3       11 UNK         0.0289 
      9 C9        -78.0437   27.6074  -73.1921 C.ar      11 UNK        -0.0687 
     10 C10       -78.5874   28.2191  -74.3237 C.ar      11 UNK        -0.0823 
     11 C11       -78.2793   29.5467  -74.6427 C.ar      11 UNK        -0.0830 
     12 C12       -77.4581   30.2816  -73.7823 C.ar      11 UNK        -0.1021 
     13 C13       -76.9278   29.6926  -72.6312 C.ar      11 UNK        -0.0753 
     14 C14       -77.2078   28.3517  -72.3524 C.ar      11 UNK        -0.0933 
     15 C15       -76.0771   30.5063  -71.6678 C.3       11 UNK         0.0166 
     16 S16       -74.3024   30.3266  -72.0108 S.3       11 UNK        -0.2615 
     17 C17       -74.0473   31.6018  -73.2952 C.3       11 UNK        -0.0865 
     18 CA        -72.5873   31.6619  -73.8153 C.3       10 UNK         0.0862 
     19 C         -71.6003   32.1853  -72.7279 C.2       10 UNK         0.5551 
     20 N         -70.6895   31.3690  -72.2100 N.am      10 UNK        -0.7319 
     21 O         -71.6606   33.3557  -72.3587 O.2       10 UNK        -0.5018 
     22 N         -72.2090   30.3937  -74.4537 N.am      10 UNK        -0.4509 
     23 C         -71.1368   30.1938  -75.2293 C.2       10 UNK         0.4899 
     24 O         -70.3622   31.0920  -75.5617 O.2       10 UNK        -0.4839 
     25 CA        -70.8938   28.7629  -75.7484 C.3       9 UNK         0.0222 
     26 CB        -69.4177   28.3351  -75.6119 C.3       9 UNK        -0.1966 
     27 N         -71.7957   27.7479  -75.1870 N.am      9 UNK        -0.4218 
     28 C         -71.8568   27.2807  -73.9302 C.2       9 UNK         0.5020 
     29 O         -71.1472   27.6844  -73.0082 O.2       9 UNK        -0.5274 
     30 CA        -72.8982   26.1793  -73.6548 C.3       8 UNK         0.0270 
     31 CB        -74.2343   26.7909  -73.2073 C.3       8 UNK        -0.1976 
     32 N         -73.1342   25.3109  -74.8107 N.am      8 UNK        -0.4313 
     33 C         -72.2371   24.4478  -75.3097 C.2       8 UNK         0.5041 
     34 O         -71.1301   24.2388  -74.8119 O.2       8 UNK        -0.5577 
     35 CA        -72.6371   23.7075  -76.5937 C.3       7 UNK         0.0284 
     36 CB        -73.5508   22.5144  -76.2728 C.3       7 UNK        -0.1958 
     37 N         -73.3003   24.6062  -77.5409 N.am      7 UNK        -0.4454 
     38 C         -72.6521   25.4698  -78.3358 C.2       7 UNK         0.5089 
     39 O         -71.4258   25.5586  -78.3963 O.2       7 UNK        -0.5125 
     40 CA        -73.5126   26.3987  -79.2109 C.3       6 UNK         0.0408 
     41 CB        -73.7551   25.7639  -80.5892 C.3       6 UNK        -0.1791 
     42 N         -74.7997   26.7439  -78.6020 N.am      6 UNK        -0.4762 
     43 C         -74.9463   27.5337  -77.5280 C.2       6 UNK         0.5007 
     44 O         -74.0074   28.0624  -76.9357 O.2       6 UNK        -0.5032 
     45 CA        -76.3808   27.7280  -77.0047 C.3       5 UNK         0.0783 
     46 C46       -77.0592   28.9282  -77.7192 C.3       11 UNK        -0.0857 
     47 S47       -78.8415   29.1153  -77.3608 S.3       11 UNK        -0.2512 
     48 C48       -78.8440   30.2064  -75.8977 C.3       11 UNK         0.0225 
     49 N         -77.1735   26.4943  -77.0717 N.am      5 UNK        -0.4615 
     50 C         -76.9009   25.3541  -76.4249 C.2       4 UNK         0.5053 
     51 O         -75.8635   25.1720  -75.7840 O.2       4 UNK        -0.5105 
     52 CA        -77.9715   24.2458  -76.4991 C.3       4 UNK         0.0263 
     53 CB        -77.6585   23.0538  -75.5763 C.3       4 UNK        -0.1981 
     54 N         -79.3107   24.7445  -76.1725 N.am      4 UNK        -0.4224 
     55 C         -80.1186   25.4220  -76.9981 C.2       3 UNK         0.4895 
     56 O         -79.7922   25.7283  -78.1459 O.2       3 UNK        -0.5091 
     57 CA        -81.4901   25.8780  -76.4557 C.3       3 UNK         0.0250 
     58 CB        -82.6028   25.7149  -77.5123 C.3       3 UNK        -0.1996 
     59 N         -81.9066   25.2776  -75.1776 N.am      3 UNK        -0.4254 
     60 C         -82.1325   23.9849  -74.9024 C.2       2 UNK         0.5004 
     61 O         -81.9008   23.0716  -75.6958 O.2       2 UNK        -0.5226 
     62 CA        -82.7222   23.6612  -73.5121 C.3       2 UNK         0.0269 
     63 CB        -82.7906   22.1464  -73.2391 C.3       2 UNK        -0.1926 
     64 N         -82.0305   24.3000  -72.3860 N.am      2 UNK        -0.4687 
     65 C         -82.0896   25.5861  -72.0249 C.2       1 UNK         0.5165 
     66 O         -82.6420   26.4436  -72.7161 O.2       1 UNK        -0.5079 
     67 H67       -81.7779   23.6808  -67.4127 H         1 UNK         0.0900 
     68 H68       -81.8667   22.1516  -68.2892 H         1 UNK         0.0900 
     69 H69       -80.3069   22.7591  -67.7280 H         1 UNK         0.0900 
     70 H70       -82.0080   25.3795  -68.7416 H         1 UNK         0.2959 
     71 H71       -82.1921   26.7645  -70.3195 H         1 UNK         0.1079 
     72 H72       -80.2266   27.5630  -71.5320 H         1 UNK         0.0837 
     73 H73       -79.9316   27.2759  -69.8547 H         1 UNK         0.0837 
     74 H74       -79.2204   25.8138  -73.4897 H         1 UNK         0.0685 
     75 H75       -77.5084   25.5390  -73.2615 H         1 UNK         0.0685 
     76 H76       -79.2344   27.6507  -74.9757 H         1 UNK         0.1434 
     77 H77       -77.2370   31.3171  -74.0023 H         1 UNK         0.1329 
     78 H78       -76.7800   27.8908  -71.4729 H         1 UNK         0.1335 
     79 H79       -76.3590   31.5599  -71.6985 H         1 UNK         0.0680 
     80 H80       -76.2678   30.1740  -70.6462 H         1 UNK         0.0680 
     81 H81       -74.7209   31.3963  -74.1282 H         1 UNK         0.1032 
     82 H82       -74.3514   32.5728  -72.8993 H         1 UNK         0.1032 
     83 H83       -72.5681   32.4143  -74.6061 H         1 UNK         0.0461 
     84 H84       -70.6562   30.4026  -72.4974 H         1 UNK         0.3453 
     85 H85       -70.0520   31.7139  -71.5103 H         1 UNK         0.3453 
     86 H86       -72.7794   29.5969  -74.2136 H         1 UNK         0.2984 
     87 H87       -71.1256   28.7934  -76.8139 H         1 UNK         0.0554 
     88 H88       -69.2593   27.3308  -76.0051 H         1 UNK         0.0847 
     89 H89       -69.0849   28.3464  -74.5737 H         1 UNK         0.0847 
     90 H90       -68.7621   29.0062  -76.1680 H         1 UNK         0.0847 
     91 H91       -72.5135   27.4342  -75.8340 H         1 UNK         0.3141 
     92 H92       -72.5170   25.5585  -72.8413 H         1 UNK         0.0743 
     93 H93       -74.6530   27.4554  -73.9643 H         1 UNK         0.0784 
     94 H94       -74.9746   26.0191  -72.9960 H         1 UNK         0.0784 
     95 H95       -74.1071   27.3717  -72.2935 H         1 UNK         0.0784 
     96 H96       -74.0545   25.3618  -75.2430 H         1 UNK         0.3213 
     97 H97       -71.7275   23.3190  -77.0577 H         1 UNK         0.0855 
     98 H98       -74.4464   22.8251  -75.7364 H         1 UNK         0.0814 
     99 H99       -73.0328   21.7908  -75.6420 H         1 UNK         0.0814 
    100 H100      -73.8608   21.9924  -77.1781 H         1 UNK         0.0814 
    101 H101      -74.3099   24.6332  -77.5190 H         1 UNK         0.3105 
    102 H102      -72.9512   27.3240  -79.3582 H         1 UNK         0.0547 
    103 H103      -72.8103   25.5207  -81.0775 H         1 UNK         0.0837 
    104 H104      -74.3300   24.8400  -80.5152 H         1 UNK         0.0837 
    105 H105      -74.2928   26.4433  -81.2508 H         1 UNK         0.0837 
    106 H106      -75.6291   26.3461  -79.0200 H         1 UNK         0.3020 
    107 H107      -76.2848   27.9786  -75.9464 H         1 UNK         0.1245 
    108 H108      -76.9704   28.8231  -78.8024 H         1 UNK         0.0781 
    109 H109      -76.5463   29.8583  -77.4663 H         1 UNK         0.0781 
    110 H110      -79.8709   30.5114  -75.6935 H         1 UNK         0.0836 
    111 H111      -78.2943   31.1176  -76.1388 H         1 UNK         0.0836 
    112 H112      -78.0495   26.5500  -77.5821 H         1 UNK         0.3022 
    113 H113      -77.9790   23.8763  -77.5266 H         1 UNK         0.0747 
    114 H114      -78.4418   22.2970  -75.6264 H         1 UNK         0.0793 
    115 H115      -76.7291   22.5671  -75.8696 H         1 UNK         0.0793 
    116 H116      -77.5551   23.3607  -74.5348 H         1 UNK         0.0793 
    117 H117      -79.6652   24.5163  -75.2563 H         1 UNK         0.3047 
    118 H118      -81.3835   26.9459  -76.2591 H         1 UNK         0.0822 
    119 H119      -82.7347   24.6719  -77.8020 H         1 UNK         0.0807 
    120 H120      -82.3721   26.2767  -78.4184 H         1 UNK         0.0807 
    121 H121      -83.5592   26.0841  -77.1418 H         1 UNK         0.0807 
    122 H122      -82.1301   25.9347  -74.4326 H         1 UNK         0.2946 
    123 H123      -83.7481   24.0363  -73.5269 H         1 UNK         0.1144 
    124 H124      -83.3625   21.6302  -74.0115 H         1 UNK         0.0793 
    125 H125      -83.2776   21.9364  -72.2865 H         1 UNK         0.0793 
    126 H126      -81.7961   21.6991  -73.2120 H         1 UNK         0.0793 
    127 H127      -81.4947   23.6892  -71.7696 H         1 UNK         0.2896 
@<TRIPOS>BOND
     1    1    2 1    
     2    1   67 1    
     3    1   68 1    
     4    1   69 1    
     5    2    3 2    
     6    2    4 am   BACKBONE|DICT|INTERRES
     7    4    5 1    
     8    4   70 1    
     9    5    6 1    
    10    5   65 1    
    11    5   71 1    
    12    6    7 1    
    13    6   72 1    
    14    6   73 1    
    15    7    8 1    
    16    8    9 1    
    17    8   74 1    
    18    8   75 1    
    19    9   10 ar   
    20    9   14 ar   
    21   10   11 ar   
    22   10   76 1    
    23   11   12 ar   
    24   11   48 1    
    25   12   13 ar   
    26   12   77 1    
    27   13   14 ar   
    28   13   15 1    
    29   14   78 1    
    30   15   16 1    
    31   15   79 1    
    32   15   80 1    
    33   16   17 1    
    34   17   18 1    
    35   17   81 1    
    36   17   82 1    
    37   18   19 1    
    38   18   22 1    
    39   18   83 1    
    40   19   20 am   BACKBONE|DICT|INTERRES
    41   19   21 2    
    42   20   84 1    
    43   20   85 1    
    44   22   23 am   BACKBONE|DICT|INTERRES
    45   22   86 1    
    46   23   24 2    
    47   23   25 1    
    48   25   26 1    
    49   25   27 1    
    50   25   87 1    
    51   26   88 1    
    52   26   89 1    
    53   26   90 1    
    54   27   28 am   BACKBONE|DICT|INTERRES
    55   27   91 1    
    56   28   29 2    
    57   28   30 1    
    58   30   31 1    
    59   30   32 1    
    60   30   92 1    
    61   31   93 1    
    62   31   94 1    
    63   31   95 1    
    64   32   33 am   BACKBONE|DICT|INTERRES
    65   32   96 1    
    66   33   34 2    
    67   33   35 1    
    68   35   36 1    
    69   35   37 1    
    70   35   97 1    
    71   36   98 1    
    72   36   99 1    
    73   36  100 1    
    74   37   38 am   BACKBONE|DICT|INTERRES
    75   37  101 1    
    76   38   39 2    
    77   38   40 1    
    78   40   41 1    
    79   40   42 1    
    80   40  102 1    
    81   41  103 1    
    82   41  104 1    
    83   41  105 1    
    84   42   43 am   BACKBONE|DICT|INTERRES
    85   42  106 1    
    86   43   44 2    
    87   43   45 1    
    88   45   46 1    
    89   45   49 1    
    90   45  107 1    
    91   46   47 1    
    92   46  108 1    
    93   46  109 1    
    94   47   48 1    
    95   48  110 1    
    96   48  111 1    
    97   49   50 am   BACKBONE|DICT|INTERRES
    98   49  112 1    
    99   50   51 2    
   100   50   52 1    
   101   52   53 1    
   102   52   54 1    
   103   52  113 1    
   104   53  114 1    
   105   53  115 1    
   106   53  116 1    
   107   54   55 am   BACKBONE|DICT|INTERRES
   108   54  117 1    
   109   55   56 2    
   110   55   57 1    
   111   57   58 1    
   112   57   59 1    
   113   57  118 1    
   114   58  119 1    
   115   58  120 1    
   116   58  121 1    
   117   59   60 am   BACKBONE|DICT|INTERRES
   118   59  122 1    
   119   60   61 2    
   120   60   62 1    
   121   62   63 1    
   122   62   64 1    
   123   62  123 1    
   124   63  124 1    
   125   63  125 1    
   126   63  126 1    
   127   64   65 am   BACKBONE|DICT|INTERRES
   128   64  127 1    
   129   65   66 2    
@<TRIPOS>SUBSTRUCTURE
     1 UNK         1 GROUP             0       ****    0 ROOT    
