@<TRIPOS>MOLECULE
3R135
127   129    1
SMALL
USER_CHARGES


@<TRIPOS>ATOM
      1 CA        -83.1147   27.9633  -71.9972 C.3       0 UNK        -0.1998 
      2 C         -81.6120   28.2082  -71.8842 C.2       0 UNK         0.4909 
      3 O         -81.0962   28.2664  -70.7704 O.2       0 UNK        -0.5240 
      4 N         -80.8643   28.3618  -72.9875 N.am      1 UNK        -0.4739 
      5 CA        -81.2981   28.2925  -74.3926 C.3       1 UNK         0.0864 
      6 C6        -80.1881   28.7692  -75.3653 C.3       11 UNK        -0.0881 
      7 S7        -79.5897   30.4624  -75.0341 S.3       11 UNK        -0.2682 
      8 C8        -77.7893   30.2116  -74.8989 C.3       11 UNK         0.0289 
      9 C9        -77.3642   29.8989  -73.4713 C.ar      11 UNK        -0.0687 
     10 C10       -77.5648   28.6237  -72.9322 C.ar      11 UNK        -0.0823 
     11 C11       -77.2160   28.3517  -71.6062 C.ar      11 UNK        -0.0830 
     12 C12       -76.6206   29.3524  -70.8351 C.ar      11 UNK        -0.1021 
     13 C13       -76.3822   30.6204  -71.3710 C.ar      11 UNK        -0.0753 
     14 C14       -76.7634   30.8910  -72.6882 C.ar      11 UNK        -0.0933 
     15 C15       -75.7645   31.7036  -70.4990 C.3       11 UNK         0.0166 
     16 S16       -74.0782   31.2742  -69.9582 S.3       11 UNK        -0.2615 
     17 C17       -73.0270   31.9971  -71.2680 C.3       11 UNK        -0.0865 
     18 CA        -72.1708   30.9729  -72.0657 C.3       10 UNK         0.0862 
     19 C         -71.1962   30.1265  -71.1965 C.2       10 UNK         0.5551 
     20 N         -71.0278   28.8338  -71.4528 N.am      10 UNK        -0.7319 
     21 O         -70.5548   30.6561  -70.2921 O.2       10 UNK        -0.5018 
     22 N         -72.9657   30.1867  -73.0223 N.am      10 UNK        -0.4509 
     23 C         -73.3089   30.6151  -74.2421 C.2       10 UNK         0.4899 
     24 O         -73.0686   31.7500  -74.6595 O.2       10 UNK        -0.4839 
     25 CA        -74.0141   29.5918  -75.1536 C.3       9 UNK         0.0222 
     26 CB        -74.3562   30.1720  -76.5421 C.3       9 UNK        -0.1966 
     27 N         -73.2756   28.3295  -75.2907 N.am      9 UNK        -0.4218 
     28 C         -72.0038   28.1549  -75.6893 C.2       9 UNK         0.5020 
     29 O         -71.2378   29.0678  -75.9984 O.2       9 UNK        -0.5274 
     30 CA        -71.5039   26.7043  -75.7698 C.3       8 UNK         0.0270 
     31 CB        -71.2938   26.1151  -74.3640 C.3       8 UNK        -0.1976 
     32 N         -72.4543   25.8766  -76.5130 N.am      8 UNK        -0.4313 
     33 C         -72.3155   25.5051  -77.7940 C.2       8 UNK         0.5041 
     34 O         -71.3090   25.7274  -78.4686 O.2       8 UNK        -0.5577 
     35 CA        -73.5032   24.7686  -78.4472 C.3       7 UNK         0.0284 
     36 CB        -73.3212   23.2463  -78.3397 C.3       7 UNK        -0.1958 
     37 N         -74.7957   25.1411  -77.8685 N.am      7 UNK        -0.4454 
     38 C         -75.3439   26.3615  -77.9480 C.2       7 UNK         0.5089 
     39 O         -74.8957   27.2635  -78.6548 O.2       7 UNK        -0.5125 
     40 CA        -76.5768   26.6421  -77.0681 C.3       6 UNK         0.0408 
     41 CB        -77.8502   26.6535  -77.9280 C.3       6 UNK        -0.1791 
     42 N         -76.7602   25.7070  -75.9528 N.am      6 UNK        -0.4762 
     43 C         -75.9035   25.4787  -74.9457 C.2       6 UNK         0.5007 
     44 O         -74.8192   26.0511  -74.8328 O.2       6 UNK        -0.5032 
     45 CA        -76.2934   24.3742  -73.9461 C.3       5 UNK         0.0783 
     46 C46       -77.2238   24.8982  -72.8286 C.3       11 UNK        -0.0857 
     47 S47       -76.3080   25.7358  -71.4957 S.3       11 UNK        -0.2512 
     48 C48       -77.5121   26.9967  -70.9819 C.3       11 UNK         0.0225 
     49 N         -76.9057   23.2437  -74.6451 N.am      5 UNK        -0.4615 
     50 C         -76.2301   22.2608  -75.2521 C.2       4 UNK         0.5053 
     51 O         -75.0023   22.1840  -75.2643 O.2       4 UNK        -0.5105 
     52 CA        -77.0613   21.1794  -75.9658 C.3       4 UNK         0.0263 
     53 CB        -77.2918   19.9802  -75.0323 C.3       4 UNK        -0.1981 
     54 N         -78.3552   21.6725  -76.4472 N.am      4 UNK        -0.4224 
     55 C         -78.5045   22.4974  -77.4929 C.2       3 UNK         0.4895 
     56 O         -77.5711   22.8951  -78.1905 O.2       3 UNK        -0.5091 
     57 CA        -79.9334   22.9900  -77.7896 C.3       3 UNK         0.0250 
     58 CB        -80.6733   21.9831  -78.6849 C.3       3 UNK        -0.1996 
     59 N         -80.7495   23.2831  -76.6010 N.am      3 UNK        -0.4254 
     60 C         -80.4138   24.1540  -75.6396 C.2       2 UNK         0.5004 
     61 O         -79.3149   24.7068  -75.5736 O.2       2 UNK        -0.5226 
     62 CA        -81.4499   24.4435  -74.5430 C.3       2 UNK         0.0269 
     63 CB        -81.2199   23.5238  -73.3334 C.3       2 UNK        -0.1926 
     64 N         -81.3291   25.8388  -74.1125 N.am      2 UNK        -0.4687 
     65 C         -81.7650   26.8853  -74.8287 C.2       1 UNK         0.5165 
     66 O         -82.4902   26.7734  -75.8179 O.2       1 UNK        -0.5079 
     67 H67       -83.5761   28.5977  -72.7523 H         1 UNK         0.0900 
     68 H68       -83.3176   26.9205  -72.2391 H         1 UNK         0.0900 
     69 H69       -83.6038   28.1837  -71.0486 H         1 UNK         0.0900 
     70 H70       -79.8920   28.6031  -72.8596 H         1 UNK         0.2959 
     71 H71       -82.1495   28.9644  -74.5151 H         1 UNK         0.1079 
     72 H72       -80.5593   28.7626  -76.3925 H         1 UNK         0.0837 
     73 H73       -79.3501   28.0713  -75.3542 H         1 UNK         0.0837 
     74 H74       -77.4634   29.4211  -75.5740 H         1 UNK         0.0685 
     75 H75       -77.2929   31.1194  -75.2450 H         1 UNK         0.0685 
     76 H76       -78.0062   27.8469  -73.5377 H         1 UNK         0.1434 
     77 H77       -76.3462   29.1502  -69.8085 H         1 UNK         0.1329 
     78 H78       -76.6011   31.8773  -73.1011 H         1 UNK         0.1335 
     79 H79       -76.3876   31.8275  -69.6122 H         1 UNK         0.0680 
     80 H80       -75.7649   32.6711  -71.0030 H         1 UNK         0.0680 
     81 H81       -73.6388   32.5805  -71.9570 H         1 UNK         0.1032 
     82 H82       -72.3680   32.7242  -70.7904 H         1 UNK         0.1032 
     83 H83       -71.4783   31.5686  -72.6640 H         1 UNK         0.0461 
     84 H84       -71.4948   28.3876  -72.2225 H         1 UNK         0.3453 
     85 H85       -70.3854   28.3066  -70.8823 H         1 UNK         0.3453 
     86 H86       -73.2388   29.2630  -72.7212 H         1 UNK         0.2984 
     87 H87       -74.9507   29.3346  -74.6617 H         1 UNK         0.0554 
     88 H88       -74.9287   29.4661  -77.1407 H         1 UNK         0.0847 
     89 H89       -73.4579   30.4324  -77.1027 H         1 UNK         0.0847 
     90 H90       -74.9576   31.0773  -76.4522 H         1 UNK         0.0847 
     91 H91       -73.8106   27.4962  -75.0480 H         1 UNK         0.3141 
     92 H92       -70.5359   26.7111  -76.2756 H         1 UNK         0.0743 
     93 H93       -72.2209   26.0746  -73.7908 H         1 UNK         0.0784 
     94 H94       -70.8944   25.1023  -74.4194 H         1 UNK         0.0784 
     95 H95       -70.5797   26.7118  -73.7950 H         1 UNK         0.0784 
     96 H96       -73.3343   25.6811  -76.0464 H         1 UNK         0.3213 
     97 H97       -73.5191   25.0398  -79.5050 H         1 UNK         0.0855 
     98 H98       -73.2856   22.9162  -77.3007 H         1 UNK         0.0814 
     99 H99       -72.3902   22.9316  -78.8130 H         1 UNK         0.0814 
    100 H100      -74.1331   22.7122  -78.8341 H         1 UNK         0.0814 
    101 H101      -75.2654   24.4486  -77.3024 H         1 UNK         0.3105 
    102 H102      -76.4428   27.6336  -76.6356 H         1 UNK         0.0547 
    103 H103      -77.7816   27.4020  -78.7184 H         1 UNK         0.0837 
    104 H104      -78.0161   25.6882  -78.4069 H         1 UNK         0.0837 
    105 H105      -78.7348   26.8867  -77.3370 H         1 UNK         0.0837 
    106 H106      -77.6550   25.2178  -75.9285 H         1 UNK         0.3020 
    107 H107      -75.3689   24.0186  -73.4838 H         1 UNK         0.1245 
    108 H108      -77.7447   24.0633  -72.3571 H         1 UNK         0.0781 
    109 H109      -78.0073   25.5401  -73.2340 H         1 UNK         0.0781 
    110 H110      -77.4830   27.0717  -69.8937 H         1 UNK         0.0836 
    111 H111      -78.5288   26.6844  -71.2250 H         1 UNK         0.0836 
    112 H112      -77.9104   23.2810  -74.7535 H         1 UNK         0.3022 
    113 H113      -76.4829   20.8357  -76.8265 H         1 UNK         0.0747 
    114 H114      -77.8155   19.1730  -75.5449 H         1 UNK         0.0793 
    115 H115      -76.3432   19.5743  -74.6778 H         1 UNK         0.0793 
    116 H116      -77.8763   20.2567  -74.1538 H         1 UNK         0.0793 
    117 H117      -79.1780   21.3893  -75.9349 H         1 UNK         0.3047 
    118 H118      -79.8367   23.9249  -78.3455 H         1 UNK         0.0822 
    119 H119      -80.8492   21.0370  -78.1714 H         1 UNK         0.0807 
    120 H120      -80.0969   21.7632  -79.5849 H         1 UNK         0.0807 
    121 H121      -81.6378   22.3738  -79.0099 H         1 UNK         0.0807 
    122 H122      -81.6627   22.8523  -76.5683 H         1 UNK         0.2946 
    123 H123      -82.4539   24.2740  -74.9393 H         1 UNK         0.1144 
    124 H124      -81.9460   23.7202  -72.5443 H         1 UNK         0.0793 
    125 H125      -80.2232   23.6513  -72.9095 H         1 UNK         0.0793 
    126 H126      -81.3241   22.4746  -73.6131 H         1 UNK         0.0793 
    127 H127      -80.7140   26.0211  -73.3338 H         1 UNK         0.2896 
@<TRIPOS>BOND
     1    1    2 1    
     2    1   67 1    
     3    1   68 1    
     4    1   69 1    
     5    2    3 2    
     6    2    4 am   BACKBONE|DICT|INTERRES
     7    4    5 1    
     8    4   70 1    
     9    5    6 1    
    10    5   65 1    
    11    5   71 1    
    12    6    7 1    
    13    6   72 1    
    14    6   73 1    
    15    7    8 1    
    16    8    9 1    
    17    8   74 1    
    18    8   75 1    
    19    9   10 ar   
    20    9   14 ar   
    21   10   11 ar   
    22   10   76 1    
    23   11   12 ar   
    24   11   48 1    
    25   12   13 ar   
    26   12   77 1    
    27   13   14 ar   
    28   13   15 1    
    29   14   78 1    
    30   15   16 1    
    31   15   79 1    
    32   15   80 1    
    33   16   17 1    
    34   17   18 1    
    35   17   81 1    
    36   17   82 1    
    37   18   19 1    
    38   18   22 1    
    39   18   83 1    
    40   19   20 am   BACKBONE|DICT|INTERRES
    41   19   21 2    
    42   20   84 1    
    43   20   85 1    
    44   22   23 am   BACKBONE|DICT|INTERRES
    45   22   86 1    
    46   23   24 2    
    47   23   25 1    
    48   25   26 1    
    49   25   27 1    
    50   25   87 1    
    51   26   88 1    
    52   26   89 1    
    53   26   90 1    
    54   27   28 am   BACKBONE|DICT|INTERRES
    55   27   91 1    
    56   28   29 2    
    57   28   30 1    
    58   30   31 1    
    59   30   32 1    
    60   30   92 1    
    61   31   93 1    
    62   31   94 1    
    63   31   95 1    
    64   32   33 am   BACKBONE|DICT|INTERRES
    65   32   96 1    
    66   33   34 2    
    67   33   35 1    
    68   35   36 1    
    69   35   37 1    
    70   35   97 1    
    71   36   98 1    
    72   36   99 1    
    73   36  100 1    
    74   37   38 am   BACKBONE|DICT|INTERRES
    75   37  101 1    
    76   38   39 2    
    77   38   40 1    
    78   40   41 1    
    79   40   42 1    
    80   40  102 1    
    81   41  103 1    
    82   41  104 1    
    83   41  105 1    
    84   42   43 am   BACKBONE|DICT|INTERRES
    85   42  106 1    
    86   43   44 2    
    87   43   45 1    
    88   45   46 1    
    89   45   49 1    
    90   45  107 1    
    91   46   47 1    
    92   46  108 1    
    93   46  109 1    
    94   47   48 1    
    95   48  110 1    
    96   48  111 1    
    97   49   50 am   BACKBONE|DICT|INTERRES
    98   49  112 1    
    99   50   51 2    
   100   50   52 1    
   101   52   53 1    
   102   52   54 1    
   103   52  113 1    
   104   53  114 1    
   105   53  115 1    
   106   53  116 1    
   107   54   55 am   BACKBONE|DICT|INTERRES
   108   54  117 1    
   109   55   56 2    
   110   55   57 1    
   111   57   58 1    
   112   57   59 1    
   113   57  118 1    
   114   58  119 1    
   115   58  120 1    
   116   58  121 1    
   117   59   60 am   BACKBONE|DICT|INTERRES
   118   59  122 1    
   119   60   61 2    
   120   60   62 1    
   121   62   63 1    
   122   62   64 1    
   123   62  123 1    
   124   63  124 1    
   125   63  125 1    
   126   63  126 1    
   127   64   65 am   BACKBONE|DICT|INTERRES
   128   64  127 1    
   129   65   66 2    
@<TRIPOS>SUBSTRUCTURE
     1 UNK         1 GROUP             0       ****    0 ROOT    
