@<TRIPOS>MOLECULE
3R135
127   129    1
SMALL
USER_CHARGES


@<TRIPOS>ATOM
      1 CA        -85.0524   28.5891  -75.0745 C.3       0 UNK        -0.1998 
      2 C         -83.6042   29.0214  -75.2478 C.2       0 UNK         0.4909 
      3 O         -83.3012   29.7965  -76.1554 O.2       0 UNK        -0.5240 
      4 N         -82.7091   28.5285  -74.3817 N.am      1 UNK        -0.4739 
      5 CA        -81.2697   28.8296  -74.3934 C.3       1 UNK         0.0864 
      6 C6        -80.5725   28.3637  -73.0925 C.3       11 UNK        -0.0881 
      7 S7        -81.3427   29.0386  -71.5784 S.3       11 UNK        -0.2682 
      8 C8        -79.9426   29.8822  -70.7629 C.3       11 UNK         0.0289 
      9 C9        -78.7314   28.9818  -70.5304 C.ar      11 UNK        -0.0687 
     10 C10       -78.8812   27.6677  -70.0714 C.ar      11 UNK        -0.0823 
     11 C11       -77.7698   26.8313  -69.9236 C.ar      11 UNK        -0.0830 
     12 C12       -76.4951   27.3386  -70.1939 C.ar      11 UNK        -0.1021 
     13 C13       -76.3235   28.6606  -70.6148 C.ar      11 UNK        -0.0753 
     14 C14       -77.4474   29.4751  -70.7821 C.ar      11 UNK        -0.0933 
     15 C15       -74.9216   29.2060  -70.8626 C.3       11 UNK         0.0166 
     16 S16       -74.7203   29.8710  -72.5448 S.3       11 UNK        -0.2615 
     17 C17       -72.9018   29.8914  -72.6769 C.3       11 UNK        -0.0865 
     18 CA        -72.4091   30.5340  -74.0005 C.3       10 UNK         0.0862 
     19 C         -70.8681   30.7677  -73.9849 C.2       10 UNK         0.5551 
     20 N         -70.1059   30.3489  -74.9882 N.am      10 UNK        -0.7319 
     21 O         -70.3489   31.3577  -73.0403 O.2       10 UNK        -0.5018 
     22 N         -72.8992   29.7995  -75.1801 N.am      10 UNK        -0.4509 
     23 C         -73.1237   30.3564  -76.3765 C.2       10 UNK         0.4899 
     24 O         -72.9962   31.5620  -76.6002 O.2       10 UNK        -0.4839 
     25 CA        -73.5455   29.4043  -77.5162 C.3       9 UNK         0.0222 
     26 CB        -73.5975   30.1081  -78.8883 C.3       9 UNK        -0.1966 
     27 N         -72.7256   28.1897  -77.6141 N.am      9 UNK        -0.4218 
     28 C         -71.3894   28.0909  -77.6749 C.2       9 UNK         0.5020 
     29 O         -70.6269   29.0558  -77.5962 O.2       9 UNK        -0.5274 
     30 CA        -70.8112   26.6666  -77.8336 C.3       8 UNK         0.0270 
     31 CB        -69.2715   26.6419  -77.7833 C.3       8 UNK        -0.1976 
     32 N         -71.3313   25.7388  -76.8249 N.am      8 UNK        -0.4313 
     33 C         -72.5562   25.1989  -76.8249 C.2       8 UNK         0.5041 
     34 O         -73.3755   25.3887  -77.7268 O.2       8 UNK        -0.5577 
     35 CA        -72.9770   24.3734  -75.5950 C.3       7 UNK         0.0284 
     36 CB        -71.8634   24.1717  -74.5411 C.3       7 UNK        -0.1958 
     37 N         -74.1759   24.9510  -74.9771 N.am      7 UNK        -0.4454 
     38 C         -74.3113   26.2003  -74.5060 C.2       7 UNK         0.5089 
     39 O         -73.3977   27.0276  -74.4915 O.2       7 UNK        -0.5125 
     40 CA        -75.6936   26.6310  -73.9889 C.3       6 UNK         0.0408 
     41 CB        -76.3224   27.6727  -74.9292 C.3       6 UNK        -0.1791 
     42 N         -76.6561   25.5495  -73.7771 N.am      6 UNK        -0.4762 
     43 C         -76.6266   24.6776  -72.7580 C.2       6 UNK         0.5007 
     44 O         -75.6744   24.5507  -71.9882 O.2       6 UNK        -0.5032 
     45 CA        -77.8902   23.8195  -72.5642 C.3       5 UNK         0.0783 
     46 C46       -79.0561   24.6733  -71.9903 C.3       11 UNK        -0.0857 
     47 S47       -79.3089   24.4657  -70.1957 S.3       11 UNK        -0.2512 
     48 C48       -77.9174   25.3874  -69.4482 C.3       11 UNK         0.0225 
     49 N         -78.2505   23.2056  -73.8424 N.am      5 UNK        -0.4615 
     50 C         -78.0275   21.9267  -74.1715 C.2       4 UNK         0.5053 
     51 O         -77.6006   21.0793  -73.3870 O.2       4 UNK        -0.5105 
     52 CA        -78.3070   21.5204  -75.6333 C.3       4 UNK         0.0263 
     53 CB        -79.7292   20.9535  -75.7701 C.3       4 UNK        -0.1981 
     54 N         -78.1315   22.6179  -76.5903 N.am      4 UNK        -0.4224 
     55 C         -76.9852   23.2850  -76.7894 C.2       3 UNK         0.4895 
     56 O         -75.9183   22.9689  -76.2654 O.2       3 UNK        -0.5091 
     57 CA        -77.0371   24.5480  -77.6701 C.3       3 UNK         0.0250 
     58 CB        -76.5058   24.2373  -79.0779 C.3       3 UNK        -0.1996 
     59 N         -78.3580   25.1852  -77.7817 N.am      3 UNK        -0.4254 
     60 C         -79.1201   25.6177  -76.7661 C.2       2 UNK         0.5004 
     61 O         -78.8283   25.4685  -75.5755 O.2       2 UNK        -0.5226 
     62 CA        -80.4622   26.2595  -77.1570 C.3       2 UNK         0.0269 
     63 CB        -81.4757   25.1737  -77.5569 C.3       2 UNK        -0.1926 
     64 N         -81.0369   27.0497  -76.0677 N.am      2 UNK        -0.4687 
     65 C         -80.5524   28.2151  -75.6147 C.2       1 UNK         0.5165 
     66 O         -79.5926   28.8008  -76.1180 O.2       1 UNK        -0.5079 
     67 H67       -85.6862   29.4596  -74.9077 H         1 UNK         0.0900 
     68 H68       -85.4017   28.0796  -75.9722 H         1 UNK         0.0900 
     69 H69       -85.1777   27.9121  -74.2296 H         1 UNK         0.0900 
     70 H70       -83.0198   27.9245  -73.6337 H         1 UNK         0.2959 
     71 H71       -81.1580   29.9136  -74.4696 H         1 UNK         0.1079 
     72 H72       -80.5973   27.2754  -73.0161 H         1 UNK         0.0837 
     73 H73       -79.5162   28.6387  -73.1187 H         1 UNK         0.0837 
     74 H74       -80.2788   30.2728  -69.8017 H         1 UNK         0.0685 
     75 H75       -79.6661   30.7461  -71.3696 H         1 UNK         0.0685 
     76 H76       -79.8692   27.2857  -69.8547 H         1 UNK         0.1434 
     77 H77       -75.6301   26.7007  -70.0711 H         1 UNK         0.1329 
     78 H78       -77.3174   30.4949  -71.1180 H         1 UNK         0.1335 
     79 H79       -74.7071   29.9923  -70.1378 H         1 UNK         0.0680 
     80 H80       -74.1787   28.4230  -70.7019 H         1 UNK         0.0680 
     81 H81       -72.5271   28.8698  -72.5893 H         1 UNK         0.1032 
     82 H82       -72.5135   30.4372  -71.8147 H         1 UNK         0.1032 
     83 H83       -72.8404   31.5364  -74.0343 H         1 UNK         0.0461 
     84 H84       -69.1140   30.5201  -74.9517 H         1 UNK         0.3453 
     85 H85       -70.5054   29.9002  -75.8057 H         1 UNK         0.3453 
     86 H86       -73.0224   28.7970  -75.0571 H         1 UNK         0.2984 
     87 H87       -74.5563   29.0715  -77.2773 H         1 UNK         0.0554 
     88 H88       -74.2809   30.9581  -78.8691 H         1 UNK         0.0847 
     89 H89       -73.9471   29.4322  -79.6687 H         1 UNK         0.0847 
     90 H90       -72.6172   30.4836  -79.1845 H         1 UNK         0.0847 
     91 H91       -73.2340   27.3092  -77.6608 H         1 UNK         0.3141 
     92 H92       -71.1147   26.3107  -78.8206 H         1 UNK         0.0743 
     93 H93       -68.8445   27.2781  -78.5598 H         1 UNK         0.0784 
     94 H94       -68.8930   26.9988  -76.8245 H         1 UNK         0.0784 
     95 H95       -68.8845   25.6356  -77.9448 H         1 UNK         0.0784 
     96 H96       -70.7483   25.5834  -76.0153 H         1 UNK         0.3213 
     97 H97       -73.2604   23.3896  -75.9715 H         1 UNK         0.0855 
     98 H98       -71.5227   25.1130  -74.1084 H         1 UNK         0.0814 
     99 H99       -70.9981   23.6654  -74.9708 H         1 UNK         0.0814 
    100 H100      -72.2180   23.5479  -73.7204 H         1 UNK         0.0814 
    101 H101      -75.0003   24.3624  -75.0186 H         1 UNK         0.3105 
    102 H102      -75.5274   27.1073  -73.0225 H         1 UNK         0.0547 
    103 H103      -77.2558   28.0605  -74.5209 H         1 UNK         0.0837 
    104 H104      -76.5341   27.2594  -75.9147 H         1 UNK         0.0837 
    105 H105      -75.6591   28.5259  -75.0710 H         1 UNK         0.0837 
    106 H106      -77.4762   25.5638  -74.3812 H         1 UNK         0.3020 
    107 H107      -77.6397   23.0353  -71.8459 H         1 UNK         0.1245 
    108 H108      -79.9979   24.3739  -72.4533 H         1 UNK         0.0781 
    109 H109      -78.9601   25.7343  -72.2272 H         1 UNK         0.0781 
    110 H110      -76.9994   24.8279  -69.6321 H         1 UNK         0.0836 
    111 H111      -78.0520   25.3950  -68.3659 H         1 UNK         0.0836 
    112 H112      -78.5832   23.8432  -74.5596 H         1 UNK         0.3022 
    113 H113      -77.5952   20.7351  -75.8963 H         1 UNK         0.0747 
    114 H114      -79.9142   20.5823  -76.7784 H         1 UNK         0.0793 
    115 H115      -79.8830   20.1175  -75.0861 H         1 UNK         0.0793 
    116 H116      -80.4871   21.7043  -75.5425 H         1 UNK         0.0793 
    117 H117      -78.9590   22.9422  -77.0680 H         1 UNK         0.3047 
    118 H118      -76.3639   25.2753  -77.2130 H         1 UNK         0.0822 
    119 H119      -76.4223   25.1422  -79.6800 H         1 UNK         0.0807 
    120 H120      -77.1493   23.5345  -79.6085 H         1 UNK         0.0807 
    121 H121      -75.5089   23.7959  -79.0282 H         1 UNK         0.0807 
    122 H122      -78.6948   25.3288  -78.7233 H         1 UNK         0.2946 
    123 H123      -80.2916   26.9243  -78.0070 H         1 UNK         0.1144 
    124 H124      -81.6671   24.4784  -76.7381 H         1 UNK         0.0793 
    125 H125      -81.1179   24.5883  -78.4049 H         1 UNK         0.0793 
    126 H126      -82.4292   25.6120  -77.8528 H         1 UNK         0.0793 
    127 H127      -81.8197   26.6435  -75.5773 H         1 UNK         0.2896 
@<TRIPOS>BOND
     1    1    2 1    
     2    1   67 1    
     3    1   68 1    
     4    1   69 1    
     5    2    3 2    
     6    2    4 am   BACKBONE|DICT|INTERRES
     7    4    5 1    
     8    4   70 1    
     9    5    6 1    
    10    5   65 1    
    11    5   71 1    
    12    6    7 1    
    13    6   72 1    
    14    6   73 1    
    15    7    8 1    
    16    8    9 1    
    17    8   74 1    
    18    8   75 1    
    19    9   10 ar   
    20    9   14 ar   
    21   10   11 ar   
    22   10   76 1    
    23   11   12 ar   
    24   11   48 1    
    25   12   13 ar   
    26   12   77 1    
    27   13   14 ar   
    28   13   15 1    
    29   14   78 1    
    30   15   16 1    
    31   15   79 1    
    32   15   80 1    
    33   16   17 1    
    34   17   18 1    
    35   17   81 1    
    36   17   82 1    
    37   18   19 1    
    38   18   22 1    
    39   18   83 1    
    40   19   20 am   BACKBONE|DICT|INTERRES
    41   19   21 2    
    42   20   84 1    
    43   20   85 1    
    44   22   23 am   BACKBONE|DICT|INTERRES
    45   22   86 1    
    46   23   24 2    
    47   23   25 1    
    48   25   26 1    
    49   25   27 1    
    50   25   87 1    
    51   26   88 1    
    52   26   89 1    
    53   26   90 1    
    54   27   28 am   BACKBONE|DICT|INTERRES
    55   27   91 1    
    56   28   29 2    
    57   28   30 1    
    58   30   31 1    
    59   30   32 1    
    60   30   92 1    
    61   31   93 1    
    62   31   94 1    
    63   31   95 1    
    64   32   33 am   BACKBONE|DICT|INTERRES
    65   32   96 1    
    66   33   34 2    
    67   33   35 1    
    68   35   36 1    
    69   35   37 1    
    70   35   97 1    
    71   36   98 1    
    72   36   99 1    
    73   36  100 1    
    74   37   38 am   BACKBONE|DICT|INTERRES
    75   37  101 1    
    76   38   39 2    
    77   38   40 1    
    78   40   41 1    
    79   40   42 1    
    80   40  102 1    
    81   41  103 1    
    82   41  104 1    
    83   41  105 1    
    84   42   43 am   BACKBONE|DICT|INTERRES
    85   42  106 1    
    86   43   44 2    
    87   43   45 1    
    88   45   46 1    
    89   45   49 1    
    90   45  107 1    
    91   46   47 1    
    92   46  108 1    
    93   46  109 1    
    94   47   48 1    
    95   48  110 1    
    96   48  111 1    
    97   49   50 am   BACKBONE|DICT|INTERRES
    98   49  112 1    
    99   50   51 2    
   100   50   52 1    
   101   52   53 1    
   102   52   54 1    
   103   52  113 1    
   104   53  114 1    
   105   53  115 1    
   106   53  116 1    
   107   54   55 am   BACKBONE|DICT|INTERRES
   108   54  117 1    
   109   55   56 2    
   110   55   57 1    
   111   57   58 1    
   112   57   59 1    
   113   57  118 1    
   114   58  119 1    
   115   58  120 1    
   116   58  121 1    
   117   59   60 am   BACKBONE|DICT|INTERRES
   118   59  122 1    
   119   60   61 2    
   120   60   62 1    
   121   62   63 1    
   122   62   64 1    
   123   62  123 1    
   124   63  124 1    
   125   63  125 1    
   126   63  126 1    
   127   64   65 am   BACKBONE|DICT|INTERRES
   128   64  127 1    
   129   65   66 2    
@<TRIPOS>SUBSTRUCTURE
     1 UNK         1 GROUP             0       ****    0 ROOT    
