@<TRIPOS>MOLECULE
3R135
127   129    1
SMALL
USER_CHARGES


@<TRIPOS>ATOM
      1 CA        -82.5122   23.7883  -74.3489 C.3       0 UNK        -0.1998 
      2 C         -82.2903   25.1715  -74.9409 C.2       0 UNK         0.4909 
      3 O         -83.1139   25.6480  -75.7223 O.2       0 UNK        -0.5240 
      4 N         -81.1628   25.8098  -74.6068 N.am      1 UNK        -0.4739 
      5 CA        -80.7485   27.1349  -75.0891 C.3       1 UNK         0.0864 
      6 C6        -79.8565   27.8612  -74.0480 C.3       11 UNK        -0.0881 
      7 S7        -80.7511   28.1591  -72.4874 S.3       11 UNK        -0.2682 
      8 C8        -80.0958   29.7854  -71.9848 C.3       11 UNK         0.0289 
      9 C9        -78.6427   29.7321  -71.5223 C.ar      11 UNK        -0.0687 
     10 C10       -78.2277   28.7743  -70.5918 C.ar      11 UNK        -0.0823 
     11 C11       -76.9052   28.7435  -70.1447 C.ar      11 UNK        -0.0830 
     12 C12       -76.0006   29.7021  -70.6058 C.ar      11 UNK        -0.1021 
     13 C13       -76.3951   30.6704  -71.5387 C.ar      11 UNK        -0.0753 
     14 C14       -77.7193   30.6722  -71.9928 C.ar      11 UNK        -0.0933 
     15 C15       -75.4387   31.7501  -72.0522 C.3       11 UNK         0.0166 
     16 S16       -73.6594   31.3534  -71.9245 S.3       11 UNK        -0.2615 
     17 C17       -73.5430   29.9813  -73.1161 C.3       11 UNK        -0.0865 
     18 CA        -72.1455   29.3193  -73.1726 C.3       10 UNK         0.0862 
     19 C         -71.8628   28.4293  -71.9301 C.2       10 UNK         0.5551 
     20 N         -72.2312   27.1539  -71.9400 N.am      10 UNK        -0.7319 
     21 O         -71.2785   28.8947  -70.9547 O.2       10 UNK        -0.5018 
     22 N         -71.9878   28.6036  -74.4417 N.am      10 UNK        -0.4509 
     23 C         -70.8232   28.2735  -75.0101 C.2       10 UNK         0.4899 
     24 O         -69.7207   28.5716  -74.5503 O.2       10 UNK        -0.4839 
     25 CA        -70.9048   27.4939  -76.3314 C.3       9 UNK         0.0222 
     26 CB        -71.0395   25.9882  -76.0501 C.3       9 UNK        -0.1966 
     27 N         -72.0415   27.9399  -77.1429 N.am      9 UNK        -0.4218 
     28 C         -71.9741   28.8451  -78.1296 C.2       9 UNK         0.5020 
     29 O         -70.9253   29.3729  -78.5027 O.2       9 UNK        -0.5274 
     30 CA        -73.2887   29.2233  -78.8419 C.3       8 UNK         0.0270 
     31 CB        -73.4743   28.3703  -80.1077 C.3       8 UNK        -0.1976 
     32 N         -74.4762   29.0881  -77.9946 N.am      8 UNK        -0.4313 
     33 C         -74.7935   29.9124  -76.9865 C.2       8 UNK         0.5041 
     34 O         -74.1637   30.9356  -76.7188 O.2       8 UNK        -0.5577 
     35 CA        -76.0028   29.5236  -76.1104 C.3       7 UNK         0.0284 
     36 CB        -77.2599   30.2772  -76.5726 C.3       7 UNK        -0.1958 
     37 N         -76.2960   28.0844  -76.0476 N.am      7 UNK        -0.4454 
     38 C         -75.4383   27.1216  -75.6885 C.2       7 UNK         0.5089 
     39 O         -74.2541   27.3378  -75.4345 O.2       7 UNK        -0.5125 
     40 CA        -75.9791   25.6815  -75.6625 C.3       6 UNK         0.0408 
     41 CB        -75.0123   24.7019  -76.3556 C.3       6 UNK        -0.1791 
     42 N         -76.3067   25.2139  -74.3117 N.am      6 UNK        -0.4762 
     43 C         -75.5017   25.1214  -73.2368 C.2       6 UNK         0.5007 
     44 O         -74.3143   25.4464  -73.2213 O.2       6 UNK        -0.5032 
     45 CA        -76.1249   24.5009  -71.9648 C.3       5 UNK         0.0783 
     46 C46       -76.7301   25.5792  -71.0322 C.3       11 UNK        -0.0857 
     47 S47       -75.4671   26.3823  -69.9908 S.3       11 UNK        -0.2512 
     48 C48       -76.4485   27.6742  -69.1640 C.3       11 UNK         0.0225 
     49 N         -77.1121   23.4674  -72.2923 N.am      5 UNK        -0.4615 
     50 C         -76.8201   22.2847  -72.8481 C.2       4 UNK         0.5053 
     51 O         -75.6735   21.8838  -73.0490 O.2       4 UNK        -0.5105 
     52 CA        -78.0041   21.4082  -73.2885 C.3       4 UNK         0.0263 
     53 CB        -79.2673   21.5771  -72.4125 C.3       4 UNK        -0.1981 
     54 N         -78.3060   21.6074  -74.7111 N.am      4 UNK        -0.4224 
     55 C         -78.7211   22.7372  -75.3023 C.2       3 UNK         0.4895 
     56 O         -78.9385   23.7936  -74.6971 O.2       3 UNK        -0.5091 
     57 CA        -78.9304   22.6744  -76.8243 C.3       3 UNK         0.0250 
     58 CB        -79.8446   21.5050  -77.2426 C.3       3 UNK        -0.1996 
     59 N         -79.5264   23.9312  -77.2598 N.am      3 UNK        -0.4254 
     60 C         -79.4101   24.5146  -78.4582 C.2       2 UNK         0.5004 
     61 O         -78.7603   24.0378  -79.3891 O.2       2 UNK        -0.5226 
     62 CA        -80.1602   25.8495  -78.6622 C.3       2 UNK         0.0269 
     63 CB        -81.2823   25.6869  -79.7011 C.3       2 UNK        -0.1926 
     64 N         -80.7430   26.3646  -77.4176 N.am      2 UNK        -0.4687 
     65 C         -80.0482   26.9829  -76.4550 C.2       1 UNK         0.5165 
     66 O         -78.8802   27.3411  -76.5996 O.2       1 UNK        -0.5079 
     67 H67       -82.5905   23.0476  -75.1441 H         1 UNK         0.0900 
     68 H68       -83.4366   23.7708  -73.7725 H         1 UNK         0.0900 
     69 H69       -81.6960   23.4927  -73.6905 H         1 UNK         0.0900 
     70 H70       -80.4854   25.3338  -74.0245 H         1 UNK         0.2959 
     71 H71       -81.6351   27.7508  -75.2573 H         1 UNK         0.1079 
     72 H72       -79.5174   28.8198  -74.4436 H         1 UNK         0.0837 
     73 H73       -78.9557   27.2840  -73.8294 H         1 UNK         0.0837 
     74 H74       -80.2210   30.4907  -72.8079 H         1 UNK         0.0685 
     75 H75       -80.7037   30.1639  -71.1622 H         1 UNK         0.0685 
     76 H76       -78.9357   28.0454  -70.2220 H         1 UNK         0.1434 
     77 H77       -74.9855   29.6776  -70.2354 H         1 UNK         0.1329 
     78 H78       -78.0373   31.4236  -72.7028 H         1 UNK         0.1335 
     79 H79       -75.6639   31.9778  -73.0955 H         1 UNK         0.0680 
     80 H80       -75.6251   32.6656  -71.4894 H         1 UNK         0.0680 
     81 H81       -73.7747   30.4113  -74.0901 H         1 UNK         0.1032 
     82 H82       -74.3178   29.2371  -72.9196 H         1 UNK         0.1032 
     83 H83       -71.4027   30.1198  -73.1691 H         1 UNK         0.0461 
     84 H84       -72.0397   26.5865  -71.1310 H         1 UNK         0.3453 
     85 H85       -72.7752   26.7627  -72.7006 H         1 UNK         0.3453 
     86 H86       -72.8431   28.2267  -74.8458 H         1 UNK         0.2984 
     87 H87       -69.9726   27.6523  -76.8778 H         1 UNK         0.0554 
     88 H88       -71.0928   25.4137  -76.9748 H         1 UNK         0.0847 
     89 H89       -71.9307   25.7635  -75.4625 H         1 UNK         0.0847 
     90 H90       -70.1804   25.6199  -75.4878 H         1 UNK         0.0847 
     91 H91       -72.9545   27.6161  -76.8398 H         1 UNK         0.3141 
     92 H92       -73.2063   30.2690  -79.1465 H         1 UNK         0.0743 
     93 H93       -72.6179   28.4733  -80.7758 H         1 UNK         0.0784 
     94 H94       -73.5764   27.3104  -79.8709 H         1 UNK         0.0784 
     95 H95       -74.3577   28.6775  -80.6680 H         1 UNK         0.0784 
     96 H96       -75.0663   28.2846  -78.1533 H         1 UNK         0.3213 
     97 H97       -75.7814   29.8439  -75.0917 H         1 UNK         0.0855 
     98 H98       -77.0760   31.3512  -76.6280 H         1 UNK         0.0814 
     99 H99       -78.0880   30.1294  -75.8803 H         1 UNK         0.0814 
    100 H100      -77.5860   29.9486  -77.5602 H         1 UNK         0.0814 
    101 H101      -77.2573   27.8137  -76.2640 H         1 UNK         0.3105 
    102 H102      -76.9120   25.6587  -76.2264 H         1 UNK         0.0547 
    103 H103      -74.7932   25.0229  -77.3745 H         1 UNK         0.0837 
    104 H104      -74.0617   24.6247  -75.8278 H         1 UNK         0.0837 
    105 H105      -75.4407   23.7016  -76.4148 H         1 UNK         0.0837 
    106 H106      -77.2578   24.8766  -74.2050 H         1 UNK         0.3020 
    107 H107      -75.3147   23.9983  -71.4305 H         1 UNK         0.1245 
    108 H108      -77.4543   25.1275  -70.3520 H         1 UNK         0.0781 
    109 H109      -77.2808   26.3282  -71.6041 H         1 UNK         0.0781 
    110 H110      -75.8411   28.1342  -68.3831 H         1 UNK         0.0836 
    111 H111      -77.3003   27.2170  -68.6581 H         1 UNK         0.0836 
    112 H112      -78.0850   23.7207  -72.2016 H         1 UNK         0.3022 
    113 H113      -77.6755   20.3727  -73.1844 H         1 UNK         0.0747 
    114 H114      -80.0354   20.8576  -72.6962 H         1 UNK         0.0793 
    115 H115      -79.0373   21.4012  -71.3607 H         1 UNK         0.0793 
    116 H116      -79.7083   22.5705  -72.4883 H         1 UNK         0.0793 
    117 H117      -78.1270   20.8060  -75.3000 H         1 UNK         0.3047 
    118 H118      -77.9492   22.5618  -77.2903 H         1 UNK         0.0822 
    119 H119      -80.0314   21.5138  -78.3167 H         1 UNK         0.0807 
    120 H120      -80.8107   21.5506  -76.7381 H         1 UNK         0.0807 
    121 H121      -79.3964   20.5389  -77.0096 H         1 UNK         0.0807 
    122 H122      -80.0022   24.4361  -76.5244 H         1 UNK         0.2946 
    123 H123      -79.4362   26.5732  -79.0440 H         1 UNK         0.1144 
    124 H124      -81.7873   26.6343  -79.8906 H         1 UNK         0.0793 
    125 H125      -82.0324   24.9652  -79.3750 H         1 UNK         0.0793 
    126 H126      -80.8855   25.3370  -80.6551 H         1 UNK         0.0793 
    127 H127      -81.6967   26.0901  -77.2048 H         1 UNK         0.2896 
@<TRIPOS>BOND
     1    1    2 1    
     2    1   67 1    
     3    1   68 1    
     4    1   69 1    
     5    2    3 2    
     6    2    4 am   BACKBONE|DICT|INTERRES
     7    4    5 1    
     8    4   70 1    
     9    5    6 1    
    10    5   65 1    
    11    5   71 1    
    12    6    7 1    
    13    6   72 1    
    14    6   73 1    
    15    7    8 1    
    16    8    9 1    
    17    8   74 1    
    18    8   75 1    
    19    9   10 ar   
    20    9   14 ar   
    21   10   11 ar   
    22   10   76 1    
    23   11   12 ar   
    24   11   48 1    
    25   12   13 ar   
    26   12   77 1    
    27   13   14 ar   
    28   13   15 1    
    29   14   78 1    
    30   15   16 1    
    31   15   79 1    
    32   15   80 1    
    33   16   17 1    
    34   17   18 1    
    35   17   81 1    
    36   17   82 1    
    37   18   19 1    
    38   18   22 1    
    39   18   83 1    
    40   19   20 am   BACKBONE|DICT|INTERRES
    41   19   21 2    
    42   20   84 1    
    43   20   85 1    
    44   22   23 am   BACKBONE|DICT|INTERRES
    45   22   86 1    
    46   23   24 2    
    47   23   25 1    
    48   25   26 1    
    49   25   27 1    
    50   25   87 1    
    51   26   88 1    
    52   26   89 1    
    53   26   90 1    
    54   27   28 am   BACKBONE|DICT|INTERRES
    55   27   91 1    
    56   28   29 2    
    57   28   30 1    
    58   30   31 1    
    59   30   32 1    
    60   30   92 1    
    61   31   93 1    
    62   31   94 1    
    63   31   95 1    
    64   32   33 am   BACKBONE|DICT|INTERRES
    65   32   96 1    
    66   33   34 2    
    67   33   35 1    
    68   35   36 1    
    69   35   37 1    
    70   35   97 1    
    71   36   98 1    
    72   36   99 1    
    73   36  100 1    
    74   37   38 am   BACKBONE|DICT|INTERRES
    75   37  101 1    
    76   38   39 2    
    77   38   40 1    
    78   40   41 1    
    79   40   42 1    
    80   40  102 1    
    81   41  103 1    
    82   41  104 1    
    83   41  105 1    
    84   42   43 am   BACKBONE|DICT|INTERRES
    85   42  106 1    
    86   43   44 2    
    87   43   45 1    
    88   45   46 1    
    89   45   49 1    
    90   45  107 1    
    91   46   47 1    
    92   46  108 1    
    93   46  109 1    
    94   47   48 1    
    95   48  110 1    
    96   48  111 1    
    97   49   50 am   BACKBONE|DICT|INTERRES
    98   49  112 1    
    99   50   51 2    
   100   50   52 1    
   101   52   53 1    
   102   52   54 1    
   103   52  113 1    
   104   53  114 1    
   105   53  115 1    
   106   53  116 1    
   107   54   55 am   BACKBONE|DICT|INTERRES
   108   54  117 1    
   109   55   56 2    
   110   55   57 1    
   111   57   58 1    
   112   57   59 1    
   113   57  118 1    
   114   58  119 1    
   115   58  120 1    
   116   58  121 1    
   117   59   60 am   BACKBONE|DICT|INTERRES
   118   59  122 1    
   119   60   61 2    
   120   60   62 1    
   121   62   63 1    
   122   62   64 1    
   123   62  123 1    
   124   63  124 1    
   125   63  125 1    
   126   63  126 1    
   127   64   65 am   BACKBONE|DICT|INTERRES
   128   64  127 1    
   129   65   66 2    
@<TRIPOS>SUBSTRUCTURE
     1 UNK         1 GROUP             0       ****    0 ROOT    
