@<TRIPOS>MOLECULE
3R135
127   129    1
SMALL
USER_CHARGES


@<TRIPOS>ATOM
      1 CA        -83.4978   29.0078  -72.1657 C.3       0 UNK        -0.1998 
      2 C         -82.9944   28.7654  -73.5807 C.2       0 UNK         0.4909 
      3 O         -83.7850   28.7879  -74.5244 O.2       0 UNK        -0.5240 
      4 N         -81.6834   28.5366  -73.7334 N.am      1 UNK        -0.4739 
      5 CA        -81.0229   28.2714  -75.0188 C.3       1 UNK         0.0864 
      6 C6        -79.4847   28.4193  -74.9207 C.3       11 UNK        -0.0881 
      7 S7        -78.9576   30.1337  -74.5737 S.3       11 UNK        -0.2682 
      8 C8        -78.7607   30.1687  -72.7616 C.3       11 UNK         0.0289 
      9 C9        -77.6995   29.1976  -72.2656 C.ar      11 UNK        -0.0687 
     10 C10       -78.0742   28.0191  -71.6134 C.ar      11 UNK        -0.0823 
     11 C11       -77.1059   27.1211  -71.1565 C.ar      11 UNK        -0.0830 
     12 C12       -75.7520   27.4311  -71.3198 C.ar      11 UNK        -0.1021 
     13 C13       -75.3650   28.5891  -71.9998 C.ar      11 UNK        -0.0753 
     14 C14       -76.3436   29.4741  -72.4629 C.ar      11 UNK        -0.0933 
     15 C15       -73.8936   28.8351  -72.2932 C.3       11 UNK         0.0166 
     16 S16       -73.2342   30.2868  -71.4200 S.3       11 UNK        -0.2615 
     17 C17       -73.2876   31.5663  -72.7274 C.3       11 UNK        -0.0865 
     18 CA        -71.8863   32.0193  -73.2191 C.3       10 UNK         0.0862 
     19 C         -71.1134   32.8202  -72.1271 C.2       10 UNK         0.5551 
     20 N         -69.9703   32.3514  -71.6406 N.am      10 UNK        -0.7319 
     21 O         -71.5563   33.8941  -71.7263 O.2       10 UNK        -0.5018 
     22 N         -71.1342   30.9206  -73.8545 N.am      10 UNK        -0.4509 
     23 C         -70.0864   31.0895  -74.6717 C.2       10 UNK         0.4899 
     24 O         -69.6667   32.1931  -75.0215 O.2       10 UNK        -0.4839 
     25 CA        -69.3757   29.8296  -75.1992 C.3       9 UNK         0.0222 
     26 CB        -68.5173   29.1645  -74.1038 C.3       9 UNK        -0.1966 
     27 N         -70.2644   28.8700  -75.8695 N.am      9 UNK        -0.4218 
     28 C         -71.2195   28.1002  -75.3319 C.2       9 UNK         0.5020 
     29 O         -71.4755   28.0548  -74.1279 O.2       9 UNK        -0.5274 
     30 CA        -72.0143   27.2175  -76.3097 C.3       8 UNK         0.0270 
     31 CB        -71.6803   25.7329  -76.0931 C.3       8 UNK        -0.1976 
     32 N         -73.4619   27.4110  -76.1900 N.am      8 UNK        -0.4313 
     33 C         -74.1043   28.5624  -76.4440 C.2       8 UNK         0.5041 
     34 O         -73.5271   29.5968  -76.7855 O.2       8 UNK        -0.5577 
     35 CA        -75.6439   28.5643  -76.3111 C.3       7 UNK         0.0284 
     36 CB        -76.3034   29.6666  -77.1682 C.3       7 UNK        -0.1958 
     37 N         -76.2608   27.2585  -76.5803 N.am      7 UNK        -0.4454 
     38 C         -76.2081   26.5437  -77.7158 C.2       7 UNK         0.5089 
     39 O         -75.6755   26.9406  -78.7531 O.2       7 UNK        -0.5125 
     40 CA        -76.8506   25.1387  -77.6785 C.3       6 UNK         0.0408 
     41 CB        -76.1397   24.1472  -78.6224 C.3       6 UNK        -0.1791 
     42 N         -76.9698   24.5615  -76.3312 N.am      6 UNK        -0.4762 
     43 C         -75.9808   24.3157  -75.4560 C.2       6 UNK         0.5007 
     44 O         -74.7989   24.5914  -75.6644 O.2       6 UNK        -0.5032 
     45 CA        -76.3855   23.7129  -74.1000 C.3       5 UNK         0.0783 
     46 C46       -76.9073   24.8265  -73.1635 C.3       11 UNK        -0.0857 
     47 S47       -76.8343   24.3344  -71.4076 S.3       11 UNK        -0.2512 
     48 C48       -77.5293   25.7905  -70.5422 C.3       11 UNK         0.0225 
     49 N         -77.3809   22.6586  -74.2931 N.am      5 UNK        -0.4615 
     50 C         -77.1168   21.3463  -74.3028 C.2       4 UNK         0.5053 
     51 O         -76.0063   20.8664  -74.0735 O.2       4 UNK        -0.5105 
     52 CA        -78.2890   20.4010  -74.6313 C.3       4 UNK         0.0263 
     53 CB        -78.9834   19.9398  -73.3396 C.3       4 UNK        -0.1981 
     54 N         -79.2818   21.0074  -75.5226 N.am      4 UNK        -0.4224 
     55 C         -79.0557   21.3392  -76.8020 C.2       3 UNK         0.4895 
     56 O         -78.0245   21.0506  -77.4091 O.2       3 UNK        -0.5091 
     57 CA        -80.1468   22.1491  -77.5287 C.3       3 UNK         0.0250 
     58 CB        -80.9452   21.2393  -78.4766 C.3       3 UNK        -0.1996 
     59 N         -81.0834   22.8727  -76.6563 N.am      3 UNK        -0.4254 
     60 C         -80.7523   23.8281  -75.7765 C.2       2 UNK         0.5004 
     61 O         -79.5899   24.1396  -75.5052 O.2       2 UNK        -0.5226 
     62 CA        -81.9125   24.5101  -75.0335 C.3       2 UNK         0.0269 
     63 CB        -82.2307   23.7456  -73.7382 C.3       2 UNK        -0.1926 
     64 N         -81.6105   25.9037  -74.6971 N.am      2 UNK        -0.4687 
     65 C         -81.3901   26.8842  -75.5867 C.2       1 UNK         0.5165 
     66 O         -81.4749   26.7337  -76.8067 O.2       1 UNK        -0.5079 
     67 H67       -82.6920   28.9710  -71.4328 H         1 UNK         0.0900 
     68 H68       -84.2362   28.2532  -71.8961 H         1 UNK         0.0900 
     69 H69       -83.9712   29.9870  -72.0991 H         1 UNK         0.0900 
     70 H70       -81.0826   28.5458  -72.9239 H         1 UNK         0.2959 
     71 H71       -81.3880   29.0081  -75.7386 H         1 UNK         0.1079 
     72 H72       -79.0696   27.7320  -74.1834 H         1 UNK         0.0837 
     73 H73       -79.0235   28.1422  -75.8707 H         1 UNK         0.0837 
     74 H74       -78.4817   31.1806  -72.4641 H         1 UNK         0.0685 
     75 H75       -79.7216   29.9733  -72.2850 H         1 UNK         0.0685 
     76 H76       -79.1221   27.7901  -71.4796 H         1 UNK         0.1434 
     77 H77       -75.0021   26.7321  -70.9748 H         1 UNK         0.1329 
     78 H78       -76.0543   30.3723  -72.9899 H         1 UNK         0.1335 
     79 H79       -73.2971   27.9676  -72.0063 H         1 UNK         0.0680 
     80 H80       -73.7628   28.9435  -73.3693 H         1 UNK         0.0680 
     81 H81       -73.8476   32.4207  -72.3424 H         1 UNK         0.1032 
     82 H82       -73.8679   31.2104  -73.5794 H         1 UNK         0.1032 
     83 H83       -72.0722   32.7470  -74.0116 H         1 UNK         0.0461 
     84 H84       -69.6086   31.4678  -71.9599 H         1 UNK         0.3453 
     85 H85       -69.4760   32.8794  -70.9389 H         1 UNK         0.3453 
     86 H86       -71.4154   29.9719  -73.6253 H         1 UNK         0.2984 
     87 H87       -68.6877   30.1667  -75.9764 H         1 UNK         0.0554 
     88 H88       -67.9619   28.3137  -74.4984 H         1 UNK         0.0847 
     89 H89       -69.1167   28.8115  -73.2644 H         1 UNK         0.0847 
     90 H90       -67.7870   29.8689  -73.7035 H         1 UNK         0.0847 
     91 H91       -70.1684   28.8454  -76.8757 H         1 UNK         0.3141 
     92 H92       -71.7352   27.4809  -77.3320 H         1 UNK         0.0743 
     93 H93       -71.9777   25.3953  -75.0992 H         1 UNK         0.0784 
     94 H94       -72.1853   25.1014  -76.8245 H         1 UNK         0.0784 
     95 H95       -70.6090   25.5532  -76.1928 H         1 UNK         0.0784 
     96 H96       -74.0023   26.5951  -75.9255 H         1 UNK         0.3213 
     97 H97       -75.8573   28.7896  -75.2655 H         1 UNK         0.0855 
     98 H98       -75.9938   30.6574  -76.8337 H         1 UNK         0.0814 
     99 H99       -77.3900   29.6302  -77.1038 H         1 UNK         0.0814 
    100 H100      -76.0294   29.5787  -78.2199 H         1 UNK         0.0814 
    101 H101      -76.7208   26.8220  -75.7951 H         1 UNK         0.3105 
    102 H102      -77.8720   25.2655  -78.0401 H         1 UNK         0.0547 
    103 H103      -76.1722   24.4942  -79.6557 H         1 UNK         0.0837 
    104 H104      -75.0903   24.0182  -78.3555 H         1 UNK         0.0837 
    105 H105      -76.6145   23.1665  -78.5979 H         1 UNK         0.0837 
    106 H106      -77.9256   24.3578  -76.0369 H         1 UNK         0.3020 
    107 H107      -75.4749   23.2939  -73.6645 H         1 UNK         0.1245 
    108 H108      -77.9291   25.1163  -73.4174 H         1 UNK         0.0781 
    109 H109      -76.2962   25.7216  -73.2823 H         1 UNK         0.0781 
    110 H110      -77.2189   25.7637  -69.4969 H         1 UNK         0.0836 
    111 H111      -78.6164   25.6973  -70.5403 H         1 UNK         0.0836 
    112 H112      -78.3143   22.9729  -74.5343 H         1 UNK         0.3022 
    113 H113      -77.8756   19.5231  -75.1324 H         1 UNK         0.0747 
    114 H114      -79.7699   19.2143  -73.5481 H         1 UNK         0.0793 
    115 H115      -78.2723   19.4596  -72.6658 H         1 UNK         0.0793 
    116 H116      -79.4297   20.7759  -72.7994 H         1 UNK         0.0793 
    117 H117      -80.1673   21.2656  -75.1132 H         1 UNK         0.3047 
    118 H118      -79.6284   22.8974  -78.1323 H         1 UNK         0.0822 
    119 H119      -81.6427   21.8138  -79.0866 H         1 UNK         0.0807 
    120 H120      -81.5154   20.4875  -77.9294 H         1 UNK         0.0807 
    121 H121      -80.2819   20.7094  -79.1622 H         1 UNK         0.0807 
    122 H122      -82.0623   22.6617  -76.7903 H         1 UNK         0.2946 
    123 H123      -82.7939   24.5055  -75.6788 H         1 UNK         0.1144 
    124 H124      -82.5000   22.7095  -73.9481 H         1 UNK         0.0793 
    125 H125      -83.0718   24.1940  -73.2090 H         1 UNK         0.0793 
    126 H126      -81.3768   23.7295  -73.0590 H         1 UNK         0.0793 
    127 H127      -81.5140   26.1222  -73.7171 H         1 UNK         0.2896 
@<TRIPOS>BOND
     1    1    2 1    
     2    1   67 1    
     3    1   68 1    
     4    1   69 1    
     5    2    3 2    
     6    2    4 am   BACKBONE|DICT|INTERRES
     7    4    5 1    
     8    4   70 1    
     9    5    6 1    
    10    5   65 1    
    11    5   71 1    
    12    6    7 1    
    13    6   72 1    
    14    6   73 1    
    15    7    8 1    
    16    8    9 1    
    17    8   74 1    
    18    8   75 1    
    19    9   10 ar   
    20    9   14 ar   
    21   10   11 ar   
    22   10   76 1    
    23   11   12 ar   
    24   11   48 1    
    25   12   13 ar   
    26   12   77 1    
    27   13   14 ar   
    28   13   15 1    
    29   14   78 1    
    30   15   16 1    
    31   15   79 1    
    32   15   80 1    
    33   16   17 1    
    34   17   18 1    
    35   17   81 1    
    36   17   82 1    
    37   18   19 1    
    38   18   22 1    
    39   18   83 1    
    40   19   20 am   BACKBONE|DICT|INTERRES
    41   19   21 2    
    42   20   84 1    
    43   20   85 1    
    44   22   23 am   BACKBONE|DICT|INTERRES
    45   22   86 1    
    46   23   24 2    
    47   23   25 1    
    48   25   26 1    
    49   25   27 1    
    50   25   87 1    
    51   26   88 1    
    52   26   89 1    
    53   26   90 1    
    54   27   28 am   BACKBONE|DICT|INTERRES
    55   27   91 1    
    56   28   29 2    
    57   28   30 1    
    58   30   31 1    
    59   30   32 1    
    60   30   92 1    
    61   31   93 1    
    62   31   94 1    
    63   31   95 1    
    64   32   33 am   BACKBONE|DICT|INTERRES
    65   32   96 1    
    66   33   34 2    
    67   33   35 1    
    68   35   36 1    
    69   35   37 1    
    70   35   97 1    
    71   36   98 1    
    72   36   99 1    
    73   36  100 1    
    74   37   38 am   BACKBONE|DICT|INTERRES
    75   37  101 1    
    76   38   39 2    
    77   38   40 1    
    78   40   41 1    
    79   40   42 1    
    80   40  102 1    
    81   41  103 1    
    82   41  104 1    
    83   41  105 1    
    84   42   43 am   BACKBONE|DICT|INTERRES
    85   42  106 1    
    86   43   44 2    
    87   43   45 1    
    88   45   46 1    
    89   45   49 1    
    90   45  107 1    
    91   46   47 1    
    92   46  108 1    
    93   46  109 1    
    94   47   48 1    
    95   48  110 1    
    96   48  111 1    
    97   49   50 am   BACKBONE|DICT|INTERRES
    98   49  112 1    
    99   50   51 2    
   100   50   52 1    
   101   52   53 1    
   102   52   54 1    
   103   52  113 1    
   104   53  114 1    
   105   53  115 1    
   106   53  116 1    
   107   54   55 am   BACKBONE|DICT|INTERRES
   108   54  117 1    
   109   55   56 2    
   110   55   57 1    
   111   57   58 1    
   112   57   59 1    
   113   57  118 1    
   114   58  119 1    
   115   58  120 1    
   116   58  121 1    
   117   59   60 am   BACKBONE|DICT|INTERRES
   118   59  122 1    
   119   60   61 2    
   120   60   62 1    
   121   62   63 1    
   122   62   64 1    
   123   62  123 1    
   124   63  124 1    
   125   63  125 1    
   126   63  126 1    
   127   64   65 am   BACKBONE|DICT|INTERRES
   128   64  127 1    
   129   65   66 2    
@<TRIPOS>SUBSTRUCTURE
     1 UNK         1 GROUP             0       ****    0 ROOT    
