@<TRIPOS>MOLECULE
3R135
127   129    1
SMALL
USER_CHARGES


@<TRIPOS>ATOM
      1 CA        -79.2592   21.8047  -69.8460 C.3       0 UNK        -0.1998 
      2 C         -80.1970   22.8724  -70.3894 C.2       0 UNK         0.4909 
      3 O         -81.4127   22.7628  -70.2227 O.2       0 UNK        -0.5240 
      4 N         -79.6394   23.9087  -71.0275 N.am      1 UNK        -0.4739 
      5 CA        -80.3848   24.9987  -71.6679 C.3       1 UNK         0.0864 
      6 C6        -79.4773   26.2125  -71.9913 C.3       11 UNK        -0.0881 
      7 S7        -78.5588   26.8623  -70.5517 S.3       11 UNK        -0.2682 
      8 C8        -76.9967   27.4169  -71.3190 C.3       11 UNK         0.0289 
      9 C9        -77.0914   28.8167  -71.9209 C.ar      11 UNK        -0.0687 
     10 C10       -77.9508   29.0734  -72.9932 C.ar      11 UNK        -0.0823 
     11 C11       -78.0042   30.3364  -73.5838 C.ar      11 UNK        -0.0830 
     12 C12       -77.1932   31.3586  -73.0885 C.ar      11 UNK        -0.1021 
     13 C13       -76.3169   31.1204  -72.0257 C.ar      11 UNK        -0.0753 
     14 C14       -76.2801   29.8507  -71.4381 C.ar      11 UNK        -0.0933 
     15 C15       -75.4041   32.2375  -71.5370 C.3       11 UNK         0.0166 
     16 S16       -74.2649   32.7659  -72.8589 S.3       11 UNK        -0.2615 
     17 C17       -72.6102   32.5030  -72.1291 C.3       11 UNK        -0.0865 
     18 CA        -72.0644   31.0433  -72.1855 C.3       10 UNK         0.0862 
     19 C         -72.4994   30.1590  -70.9869 C.2       10 UNK         0.5551 
     20 N         -72.2133   30.5808  -69.7625 N.am      10 UNK        -0.7319 
     21 O         -73.0828   29.0895  -71.1493 O.2       10 UNK        -0.5018 
     22 N         -72.3223   30.3634  -73.4591 N.am      10 UNK        -0.4509 
     23 C         -71.6759   30.5598  -74.6114 C.2       10 UNK         0.4899 
     24 O         -70.8094   31.4224  -74.7665 O.2       10 UNK        -0.4839 
     25 CA        -72.0578   29.6279  -75.7853 C.3       9 UNK         0.0222 
     26 CB        -70.9392   29.5123  -76.8418 C.3       9 UNK        -0.1966 
     27 N         -72.5068   28.2890  -75.3726 N.am      9 UNK        -0.4218 
     28 C         -71.8343   27.4084  -74.6113 C.2       9 UNK         0.5020 
     29 O         -70.7070   27.6026  -74.1536 O.2       9 UNK        -0.5274 
     30 CA        -72.5458   26.0841  -74.2993 C.3       8 UNK         0.0270 
     31 CB        -73.6932   26.2962  -73.2960 C.3       8 UNK        -0.1976 
     32 N         -73.0619   25.4268  -75.4979 N.am      8 UNK        -0.4313 
     33 C         -72.3118   24.8685  -76.4575 C.2       8 UNK         0.5041 
     34 O         -71.0804   24.8461  -76.4468 O.2       8 UNK        -0.5577 
     35 CA        -73.0668   24.2117  -77.6229 C.3       7 UNK         0.0284 
     36 CB        -73.6049   22.8286  -77.2183 C.3       7 UNK        -0.1958 
     37 N         -74.1693   25.0507  -78.0925 N.am      7 UNK        -0.4454 
     38 C         -74.0241   26.0942  -78.9199 C.2       7 UNK         0.5089 
     39 O         -72.9502   26.4295  -79.4202 O.2       7 UNK        -0.5125 
     40 CA        -75.2919   26.9000  -79.2565 C.3       6 UNK         0.0408 
     41 CB        -75.9307   26.3762  -80.5525 C.3       6 UNK        -0.1791 
     42 N         -76.2961   26.8937  -78.1893 N.am      6 UNK        -0.4762 
     43 C         -76.1443   27.4954  -77.0002 C.2       6 UNK         0.5007 
     44 O         -75.1197   28.0864  -76.6537 O.2       6 UNK        -0.5032 
     45 CA        -77.3147   27.3487  -76.0041 C.3       5 UNK         0.0783 
     46 C46       -78.5074   28.2744  -76.3611 C.3       11 UNK        -0.0857 
     47 S47       -78.1382   30.0637  -76.3288 S.3       11 UNK        -0.2512 
     48 C48       -78.9185   30.5930  -74.7708 C.3       11 UNK         0.0225 
     49 N         -77.7735   25.9591  -75.8624 N.am      5 UNK        -0.4615 
     50 C         -76.9995   24.8929  -75.6047 C.2       4 UNK         0.5053 
     51 O         -75.7884   24.9687  -75.4135 O.2       4 UNK        -0.5105 
     52 CA        -77.6516   23.4991  -75.5717 C.3       4 UNK         0.0263 
     53 CB        -77.5956   22.9179  -74.1504 C.3       4 UNK        -0.1981 
     54 N         -79.0296   23.4720  -76.0719 N.am      4 UNK        -0.4224 
     55 C         -79.3659   23.6381  -77.3620 C.2       3 UNK         0.4895 
     56 O         -78.5385   23.8025  -78.2598 O.2       3 UNK        -0.5091 
     57 CA        -80.8639   23.6556  -77.7254 C.3       3 UNK         0.0250 
     58 CB        -81.2756   22.3166  -78.3585 C.3       3 UNK        -0.1996 
     59 N         -81.7643   23.9521  -76.6067 N.am      3 UNK        -0.4254 
     60 C         -81.7787   25.0892  -75.8976 C.2       2 UNK         0.5004 
     61 O         -81.0151   26.0333  -76.1092 O.2       2 UNK        -0.5226 
     62 CA        -82.7648   25.1746  -74.7134 C.3       2 UNK         0.0269 
     63 CB        -83.7666   23.9992  -74.6296 C.3       2 UNK        -0.1926 
     64 N         -82.0519   25.3301  -73.4378 N.am      2 UNK        -0.4687 
     65 C         -81.0909   24.5244  -72.9585 C.2       1 UNK         0.5165 
     66 O         -80.7197   23.4934  -73.5285 O.2       1 UNK        -0.5079 
     67 H67       -79.3764   21.7158  -68.7663 H         1 UNK         0.0900 
     68 H68       -79.4908   20.8394  -70.2955 H         1 UNK         0.0900 
     69 H69       -78.2147   22.0342  -70.0563 H         1 UNK         0.0900 
     70 H70       -78.6360   23.9520  -71.1237 H         1 UNK         0.2959 
     71 H71       -81.1592   25.3238  -70.9692 H         1 UNK         0.1079 
     72 H72       -80.0865   27.0309  -72.3783 H         1 UNK         0.0837 
     73 H73       -78.7700   25.9517  -72.7812 H         1 UNK         0.0837 
     74 H74       -76.2197   27.3919  -70.5533 H         1 UNK         0.0685 
     75 H75       -76.6793   26.7091  -72.0860 H         1 UNK         0.0685 
     76 H76       -78.5663   28.2853  -73.3936 H         1 UNK         0.1434 
     77 H77       -77.2195   32.3370  -73.5492 H         1 UNK         0.1329 
     78 H78       -75.6026   29.6606  -70.6174 H         1 UNK         0.1335 
     79 H79       -76.0131   33.0901  -71.2338 H         1 UNK         0.0680 
     80 H80       -74.8479   31.9286  -70.6514 H         1 UNK         0.0680 
     81 H81       -71.9264   33.1403  -72.6917 H         1 UNK         0.1032 
     82 H82       -72.5929   32.9080  -71.1162 H         1 UNK         0.1032 
     83 H83       -70.9783   31.0998  -72.0882 H         1 UNK         0.0461 
     84 H84       -71.7102   31.4396  -69.6047 H         1 UNK         0.3453 
     85 H85       -72.4840   30.0100  -68.9772 H         1 UNK         0.3453 
     86 H86       -72.9977   29.6138  -73.3935 H         1 UNK         0.2984 
     87 H87       -72.9184   30.0938  -76.2676 H         1 UNK         0.0554 
     88 H88       -70.6896   30.4882  -77.2599 H         1 UNK         0.0847 
     89 H89       -71.2436   28.8743  -77.6719 H         1 UNK         0.0847 
     90 H90       -70.0255   29.0959  -76.4165 H         1 UNK         0.0847 
     91 H91       -73.4320   28.0307  -75.7100 H         1 UNK         0.3141 
     92 H92       -71.8169   25.4128  -73.8400 H         1 UNK         0.0743 
     93 H93       -74.4649   26.9586  -73.6910 H         1 UNK         0.0784 
     94 H94       -74.1697   25.3513  -73.0341 H         1 UNK         0.0784 
     95 H95       -73.3238   26.7374  -72.3701 H         1 UNK         0.0784 
     96 H96       -74.0766   25.3428  -75.5633 H         1 UNK         0.3213 
     97 H97       -72.3589   24.0689  -78.4428 H         1 UNK         0.0855 
     98 H98       -74.3173   22.8903  -76.3950 H         1 UNK         0.0814 
     99 H99       -72.7923   22.1765  -76.8952 H         1 UNK         0.0814 
    100 H100      -74.1011   22.3361  -78.0547 H         1 UNK         0.0814 
    101 H101      -75.0816   24.8784  -77.6947 H         1 UNK         0.3105 
    102 H102      -74.9867   27.9355  -79.4223 H         1 UNK         0.0547 
    103 H103      -75.2120   26.3849  -81.3732 H         1 UNK         0.0837 
    104 H104      -76.2870   25.3511  -80.4421 H         1 UNK         0.0837 
    105 H105      -76.7748   26.9947  -80.8579 H         1 UNK         0.0837 
    106 H106      -77.1547   26.3921  -78.3716 H         1 UNK         0.3020 
    107 H107      -76.9172   27.6440  -75.0329 H         1 UNK         0.1245 
    108 H108      -79.3385   28.0816  -75.6821 H         1 UNK         0.0781 
    109 H109      -78.8907   28.0304  -77.3537 H         1 UNK         0.0781 
    110 H110      -79.8783   30.0932  -74.6323 H         1 UNK         0.0836 
    111 H111      -79.1449   31.6581  -74.8416 H         1 UNK         0.0836 
    112 H112      -78.7644   25.8048  -76.0058 H         1 UNK         0.3022 
    113 H113      -77.0535   22.8532  -76.2180 H         1 UNK         0.0747 
    114 H114      -78.0771   21.9415  -74.0962 H         1 UNK         0.0793 
    115 H115      -76.5625   22.7890  -73.8243 H         1 UNK         0.0793 
    116 H116      -78.0799   23.5735  -73.4285 H         1 UNK         0.0793 
    117 H117      -79.7625   23.3635  -75.3773 H         1 UNK         0.3047 
    118 H118      -81.0000   24.4423  -78.4705 H         1 UNK         0.0822 
    119 H119      -82.3055   22.3447  -78.7150 H         1 UNK         0.0807 
    120 H120      -81.1858   21.4912  -77.6509 H         1 UNK         0.0807 
    121 H121      -80.6453   22.0795  -79.2170 H         1 UNK         0.0807 
    122 H122      -82.4021   23.2179  -76.3350 H         1 UNK         0.2946 
    123 H123      -83.3392   26.0893  -74.8701 H         1 UNK         0.1144 
    124 H124      -84.4797   24.1556  -73.8200 H         1 UNK         0.0793 
    125 H125      -83.2736   23.0436  -74.4471 H         1 UNK         0.0793 
    126 H126      -84.3484   23.9075  -75.5480 H         1 UNK         0.0793 
    127 H127      -82.2699   26.1732  -72.9248 H         1 UNK         0.2896 
@<TRIPOS>BOND
     1    1    2 1    
     2    1   67 1    
     3    1   68 1    
     4    1   69 1    
     5    2    3 2    
     6    2    4 am   BACKBONE|DICT|INTERRES
     7    4    5 1    
     8    4   70 1    
     9    5    6 1    
    10    5   65 1    
    11    5   71 1    
    12    6    7 1    
    13    6   72 1    
    14    6   73 1    
    15    7    8 1    
    16    8    9 1    
    17    8   74 1    
    18    8   75 1    
    19    9   10 ar   
    20    9   14 ar   
    21   10   11 ar   
    22   10   76 1    
    23   11   12 ar   
    24   11   48 1    
    25   12   13 ar   
    26   12   77 1    
    27   13   14 ar   
    28   13   15 1    
    29   14   78 1    
    30   15   16 1    
    31   15   79 1    
    32   15   80 1    
    33   16   17 1    
    34   17   18 1    
    35   17   81 1    
    36   17   82 1    
    37   18   19 1    
    38   18   22 1    
    39   18   83 1    
    40   19   20 am   BACKBONE|DICT|INTERRES
    41   19   21 2    
    42   20   84 1    
    43   20   85 1    
    44   22   23 am   BACKBONE|DICT|INTERRES
    45   22   86 1    
    46   23   24 2    
    47   23   25 1    
    48   25   26 1    
    49   25   27 1    
    50   25   87 1    
    51   26   88 1    
    52   26   89 1    
    53   26   90 1    
    54   27   28 am   BACKBONE|DICT|INTERRES
    55   27   91 1    
    56   28   29 2    
    57   28   30 1    
    58   30   31 1    
    59   30   32 1    
    60   30   92 1    
    61   31   93 1    
    62   31   94 1    
    63   31   95 1    
    64   32   33 am   BACKBONE|DICT|INTERRES
    65   32   96 1    
    66   33   34 2    
    67   33   35 1    
    68   35   36 1    
    69   35   37 1    
    70   35   97 1    
    71   36   98 1    
    72   36   99 1    
    73   36  100 1    
    74   37   38 am   BACKBONE|DICT|INTERRES
    75   37  101 1    
    76   38   39 2    
    77   38   40 1    
    78   40   41 1    
    79   40   42 1    
    80   40  102 1    
    81   41  103 1    
    82   41  104 1    
    83   41  105 1    
    84   42   43 am   BACKBONE|DICT|INTERRES
    85   42  106 1    
    86   43   44 2    
    87   43   45 1    
    88   45   46 1    
    89   45   49 1    
    90   45  107 1    
    91   46   47 1    
    92   46  108 1    
    93   46  109 1    
    94   47   48 1    
    95   48  110 1    
    96   48  111 1    
    97   49   50 am   BACKBONE|DICT|INTERRES
    98   49  112 1    
    99   50   51 2    
   100   50   52 1    
   101   52   53 1    
   102   52   54 1    
   103   52  113 1    
   104   53  114 1    
   105   53  115 1    
   106   53  116 1    
   107   54   55 am   BACKBONE|DICT|INTERRES
   108   54  117 1    
   109   55   56 2    
   110   55   57 1    
   111   57   58 1    
   112   57   59 1    
   113   57  118 1    
   114   58  119 1    
   115   58  120 1    
   116   58  121 1    
   117   59   60 am   BACKBONE|DICT|INTERRES
   118   59  122 1    
   119   60   61 2    
   120   60   62 1    
   121   62   63 1    
   122   62   64 1    
   123   62  123 1    
   124   63  124 1    
   125   63  125 1    
   126   63  126 1    
   127   64   65 am   BACKBONE|DICT|INTERRES
   128   64  127 1    
   129   65   66 2    
@<TRIPOS>SUBSTRUCTURE
     1 UNK         1 GROUP             0       ****    0 ROOT    
