@<TRIPOS>MOLECULE
3R135
127   129    1
SMALL
USER_CHARGES


@<TRIPOS>ATOM
      1 CA        -82.4616   26.5161  -69.7853 C.3       0 UNK        -0.1998 
      2 C         -82.0863   26.5085  -71.2588 C.2       0 UNK         0.4909 
      3 O         -81.0170   26.0110  -71.6088 O.2       0 UNK        -0.5240 
      4 N         -82.9636   27.0450  -72.1191 N.am      1 UNK        -0.4739 
      5 CA        -82.8428   27.2173  -73.5803 C.3       1 UNK         0.0864 
      6 C6        -81.6296   28.0745  -74.0317 C.3       11 UNK        -0.0881 
      7 S7        -81.5702   29.7154  -73.2397 S.3       11 UNK        -0.2682 
      8 C8        -79.9327   30.3009  -73.8006 C.3       11 UNK         0.0289 
      9 C9        -78.7208   29.7811  -73.0208 C.ar      11 UNK        -0.0687 
     10 C10       -78.7864   28.7157  -72.1126 C.ar      11 UNK        -0.0823 
     11 C11       -77.6484   28.2820  -71.4266 C.ar      11 UNK        -0.0830 
     12 C12       -76.4271   28.9269  -71.6461 C.ar      11 UNK        -0.1021 
     13 C13       -76.3441   29.9954  -72.5435 C.ar      11 UNK        -0.0753 
     14 C14       -77.4903   30.4111  -73.2264 C.ar      11 UNK        -0.0933 
     15 C15       -75.0331   30.7356  -72.7554 C.3       11 UNK         0.0166 
     16 S16       -74.2818   30.3241  -74.3604 S.3       11 UNK        -0.2615 
     17 C17       -73.1322   31.7299  -74.5774 C.3       11 UNK        -0.0865 
     18 CA        -71.6479   31.3908  -74.2883 C.3       10 UNK         0.0862 
     19 C         -71.3761   31.1708  -72.7696 C.2       10 UNK         0.5551 
     20 N         -70.9387   29.9978  -72.3265 N.am      10 UNK        -0.7319 
     21 O         -71.5571   32.0936  -71.9789 O.2       10 UNK        -0.5018 
     22 N         -71.1597   30.3226  -75.1712 N.am      10 UNK        -0.4509 
     23 C         -69.8714   30.0963  -75.4548 C.2       10 UNK         0.4899 
     24 O         -68.9584   30.8477  -75.1074 O.2       10 UNK        -0.4839 
     25 CA        -69.5456   28.8199  -76.2605 C.3       9 UNK         0.0222 
     26 CB        -68.1188   28.3037  -75.9784 C.3       9 UNK        -0.1966 
     27 N         -70.5138   27.7246  -76.0991 N.am      9 UNK        -0.4218 
     28 C         -70.9212   27.1403  -74.9633 C.2       9 UNK         0.5020 
     29 O         -70.5769   27.5211  -73.8424 O.2       9 UNK        -0.5274 
     30 CA        -71.8664   25.9281  -75.1086 C.3       8 UNK         0.0270 
     31 CB        -72.3750   25.4210  -73.7457 C.3       8 UNK        -0.1976 
     32 N         -73.0090   26.1590  -76.0084 N.am      8 UNK        -0.4313 
     33 C         -72.9379   26.1690  -77.3498 C.2       8 UNK         0.5041 
     34 O         -71.8661   26.1091  -77.9558 O.2       8 UNK        -0.5577 
     35 CA        -74.2342   26.2380  -78.1796 C.3       7 UNK         0.0284 
     36 CB        -74.4005   24.9509  -79.0053 C.3       7 UNK        -0.1958 
     37 N         -75.4424   26.4449  -77.3816 N.am      7 UNK        -0.4454 
     38 C         -75.9117   27.6399  -77.0004 C.2       7 UNK         0.5089 
     39 O         -75.4027   28.7090  -77.3366 O.2       7 UNK        -0.5125 
     40 CA        -77.1492   27.6461  -76.0793 C.3       6 UNK         0.0408 
     41 CB        -78.4388   27.7855  -76.9015 C.3       6 UNK        -0.1791 
     42 N         -77.2583   26.4686  -75.2108 N.am      6 UNK        -0.4762 
     43 C         -76.3421   26.1090  -74.2988 C.2       6 UNK         0.5007 
     44 O         -75.2800   26.7047  -74.1303 O.2       6 UNK        -0.5032 
     45 CA        -76.6225   24.8268  -73.4995 C.3       5 UNK         0.0783 
     46 C46       -77.6297   25.0606  -72.3454 C.3       11 UNK        -0.0857 
     47 S47       -76.7816   25.6816  -70.8528 S.3       11 UNK        -0.2512 
     48 C48       -77.7596   27.1526  -70.4093 C.3       11 UNK         0.0225 
     49 N         -77.0400   23.7539  -74.4045 N.am      5 UNK        -0.4615 
     50 C         -76.1831   22.9730  -75.0794 C.2       4 UNK         0.5053 
     51 O         -74.9610   23.0296  -74.9504 O.2       4 UNK        -0.5105 
     52 CA        -76.7723   21.9555  -76.0731 C.3       4 UNK         0.0263 
     53 CB        -76.9655   20.5916  -75.3910 C.3       4 UNK        -0.1981 
     54 N         -78.0392   22.3799  -76.6697 N.am      4 UNK        -0.4224 
     55 C         -78.1890   23.4413  -77.4745 C.2       3 UNK         0.4895 
     56 O         -77.2647   24.1680  -77.8335 O.2       3 UNK        -0.5091 
     57 CA        -79.6267   23.7834  -77.8990 C.3       3 UNK         0.0250 
     58 CB        -80.0108   23.0150  -79.1733 C.3       3 UNK        -0.1996 
     59 N         -80.6238   23.5329  -76.8507 N.am      3 UNK        -0.4254 
     60 C         -80.6060   24.0962  -75.6350 C.2       2 UNK         0.5004 
     61 O         -79.7149   24.8564  -75.2418 O.2       2 UNK        -0.5226 
     62 CA        -81.7423   23.7104  -74.6773 C.3       2 UNK         0.0269 
     63 CB        -81.2758   22.6083  -73.7128 C.3       2 UNK        -0.1926 
     64 N         -82.1336   24.8840  -73.9045 N.am      2 UNK        -0.4687 
     65 C         -82.8569   25.9006  -74.3838 C.2       1 UNK         0.5165 
     66 O         -83.4909   25.8429  -75.4389 O.2       1 UNK        -0.5079 
     67 H67       -83.4312   26.9826  -69.6124 H         1 UNK         0.0900 
     68 H68       -82.5015   25.4962  -69.4039 H         1 UNK         0.0900 
     69 H69       -81.7140   27.0650  -69.2133 H         1 UNK         0.0900 
     70 H70       -83.8289   27.4046  -71.7404 H         1 UNK         0.2959 
     71 H71       -83.7449   27.7552  -73.8775 H         1 UNK         0.1079 
     72 H72       -81.6681   28.2377  -75.1108 H         1 UNK         0.0837 
     73 H73       -80.6939   27.5436  -73.8483 H         1 UNK         0.0837 
     74 H74       -79.8069   30.0561  -74.8562 H         1 UNK         0.0685 
     75 H75       -79.9415   31.3902  -73.7394 H         1 UNK         0.0685 
     76 H76       -79.7246   28.2213  -71.9180 H         1 UNK         0.1434 
     77 H77       -75.5453   28.6002  -71.1122 H         1 UNK         0.1329 
     78 H78       -77.4210   31.2376  -73.9207 H         1 UNK         0.1335 
     79 H79       -74.3240   30.5059  -71.9586 H         1 UNK         0.0680 
     80 H80       -75.2261   31.8077  -72.6983 H         1 UNK         0.0680 
     81 H81       -73.2249   32.0680  -75.6106 H         1 UNK         0.1032 
     82 H82       -73.4542   32.5807  -73.9743 H         1 UNK         0.1032 
     83 H83       -71.0800   32.2872  -74.5454 H         1 UNK         0.0461 
     84 H84       -70.7630   29.8783  -71.3423 H         1 UNK         0.3453 
     85 H85       -70.8006   29.2154  -72.9605 H         1 UNK         0.3453 
     86 H86       -71.8501   29.6478  -75.4668 H         1 UNK         0.2984 
     87 H87       -69.5913   29.1090  -77.3112 H         1 UNK         0.0554 
     88 H88       -67.3696   29.0578  -76.2230 H         1 UNK         0.0847 
     89 H89       -67.8903   27.4206  -76.5749 H         1 UNK         0.0847 
     90 H90       -67.9871   28.0421  -74.9278 H         1 UNK         0.0847 
     91 H91       -70.8725   27.3117  -76.9595 H         1 UNK         0.3141 
     92 H92       -71.2659   25.1242  -75.5394 H         1 UNK         0.0743 
     93 H93       -72.9117   26.1983  -73.2009 H         1 UNK         0.0784 
     94 H94       -73.0407   24.5661  -73.8590 H         1 UNK         0.0784 
     95 H95       -71.5449   25.1010  -73.1148 H         1 UNK         0.0784 
     96 H96       -73.9099   26.2938  -75.5578 H         1 UNK         0.3213 
     97 H97       -74.1227   27.0703  -78.8778 H         1 UNK         0.0855 
     98 H98       -74.5041   24.0735  -78.3653 H         1 UNK         0.0814 
     99 H99       -73.5391   24.7829  -79.6533 H         1 UNK         0.0814 
    100 H100      -75.2802   25.0025  -79.6471 H         1 UNK         0.0814 
    101 H101      -75.9794   25.6169  -77.1435 H         1 UNK         0.3105 
    102 H102      -77.0635   28.5182  -75.4284 H         1 UNK         0.0547 
    103 H103      -78.4190   28.6931  -77.5061 H         1 UNK         0.0837 
    104 H104      -78.5730   26.9430  -77.5800 H         1 UNK         0.0837 
    105 H105      -79.3166   27.8419  -76.2579 H         1 UNK         0.0837 
    106 H106      -78.1082   25.9149  -75.2902 H         1 UNK         0.3020 
    107 H107      -75.6722   24.5231  -73.0526 H         1 UNK         0.1245 
    108 H108      -78.1072   24.1204  -72.0655 H         1 UNK         0.0781 
    109 H109      -78.4437   25.7260  -72.6413 H         1 UNK         0.0781 
    110 H110      -77.4153   27.5197  -69.4416 H         1 UNK         0.0836 
    111 H111      -78.7989   26.8536  -70.2652 H         1 UNK         0.0836 
    112 H112      -78.0281   23.7084  -74.6191 H         1 UNK         0.3022 
    113 H113      -76.0490   21.8348  -76.8826 H         1 UNK         0.0747 
    114 H114      -77.2986   19.8351  -76.1018 H         1 UNK         0.0793 
    115 H115      -76.0291   20.2362  -74.9583 H         1 UNK         0.0793 
    116 H116      -77.6981   20.6428  -74.5844 H         1 UNK         0.0793 
    117 H117      -78.8601   21.8445  -76.4284 H         1 UNK         0.3047 
    118 H118      -79.6535   24.8508  -78.1253 H         1 UNK         0.0822 
    119 H119      -80.9887   23.3233  -79.5437 H         1 UNK         0.0807 
    120 H120      -80.0387   21.9377  -79.0051 H         1 UNK         0.0807 
    121 H121      -79.2914   23.2015  -79.9722 H         1 UNK         0.0807 
    122 H122      -81.3841   22.9127  -77.0914 H         1 UNK         0.2946 
    123 H123      -82.6015   23.3515  -75.2486 H         1 UNK         0.1144 
    124 H124      -82.0704   22.3265  -73.0216 H         1 UNK         0.0793 
    125 H125      -80.4168   22.9273  -73.1203 H         1 UNK         0.0793 
    126 H126      -80.9843   21.7082  -74.2555 H         1 UNK         0.0793 
    127 H127      -81.6016   25.0723  -73.0568 H         1 UNK         0.2896 
@<TRIPOS>BOND
     1    1    2 1    
     2    1   67 1    
     3    1   68 1    
     4    1   69 1    
     5    2    3 2    
     6    2    4 am   BACKBONE|DICT|INTERRES
     7    4    5 1    
     8    4   70 1    
     9    5    6 1    
    10    5   65 1    
    11    5   71 1    
    12    6    7 1    
    13    6   72 1    
    14    6   73 1    
    15    7    8 1    
    16    8    9 1    
    17    8   74 1    
    18    8   75 1    
    19    9   10 ar   
    20    9   14 ar   
    21   10   11 ar   
    22   10   76 1    
    23   11   12 ar   
    24   11   48 1    
    25   12   13 ar   
    26   12   77 1    
    27   13   14 ar   
    28   13   15 1    
    29   14   78 1    
    30   15   16 1    
    31   15   79 1    
    32   15   80 1    
    33   16   17 1    
    34   17   18 1    
    35   17   81 1    
    36   17   82 1    
    37   18   19 1    
    38   18   22 1    
    39   18   83 1    
    40   19   20 am   BACKBONE|DICT|INTERRES
    41   19   21 2    
    42   20   84 1    
    43   20   85 1    
    44   22   23 am   BACKBONE|DICT|INTERRES
    45   22   86 1    
    46   23   24 2    
    47   23   25 1    
    48   25   26 1    
    49   25   27 1    
    50   25   87 1    
    51   26   88 1    
    52   26   89 1    
    53   26   90 1    
    54   27   28 am   BACKBONE|DICT|INTERRES
    55   27   91 1    
    56   28   29 2    
    57   28   30 1    
    58   30   31 1    
    59   30   32 1    
    60   30   92 1    
    61   31   93 1    
    62   31   94 1    
    63   31   95 1    
    64   32   33 am   BACKBONE|DICT|INTERRES
    65   32   96 1    
    66   33   34 2    
    67   33   35 1    
    68   35   36 1    
    69   35   37 1    
    70   35   97 1    
    71   36   98 1    
    72   36   99 1    
    73   36  100 1    
    74   37   38 am   BACKBONE|DICT|INTERRES
    75   37  101 1    
    76   38   39 2    
    77   38   40 1    
    78   40   41 1    
    79   40   42 1    
    80   40  102 1    
    81   41  103 1    
    82   41  104 1    
    83   41  105 1    
    84   42   43 am   BACKBONE|DICT|INTERRES
    85   42  106 1    
    86   43   44 2    
    87   43   45 1    
    88   45   46 1    
    89   45   49 1    
    90   45  107 1    
    91   46   47 1    
    92   46  108 1    
    93   46  109 1    
    94   47   48 1    
    95   48  110 1    
    96   48  111 1    
    97   49   50 am   BACKBONE|DICT|INTERRES
    98   49  112 1    
    99   50   51 2    
   100   50   52 1    
   101   52   53 1    
   102   52   54 1    
   103   52  113 1    
   104   53  114 1    
   105   53  115 1    
   106   53  116 1    
   107   54   55 am   BACKBONE|DICT|INTERRES
   108   54  117 1    
   109   55   56 2    
   110   55   57 1    
   111   57   58 1    
   112   57   59 1    
   113   57  118 1    
   114   58  119 1    
   115   58  120 1    
   116   58  121 1    
   117   59   60 am   BACKBONE|DICT|INTERRES
   118   59  122 1    
   119   60   61 2    
   120   60   62 1    
   121   62   63 1    
   122   62   64 1    
   123   62  123 1    
   124   63  124 1    
   125   63  125 1    
   126   63  126 1    
   127   64   65 am   BACKBONE|DICT|INTERRES
   128   64  127 1    
   129   65   66 2    
@<TRIPOS>SUBSTRUCTURE
     1 UNK         1 GROUP             0       ****    0 ROOT    
