@<TRIPOS>MOLECULE
3R135
127   129    1
SMALL
USER_CHARGES


@<TRIPOS>ATOM
      1 CA        -85.4826   26.5732  -70.6946 C.3       0 UNK        -0.1998 
      2 C         -84.8677   27.0361  -72.0068 C.2       0 UNK         0.4909 
      3 O         -85.5103   26.9342  -73.0522 O.2       0 UNK        -0.5240 
      4 N         -83.6304   27.5488  -71.9579 N.am      1 UNK        -0.4739 
      5 CA        -82.8630   28.0110  -73.1218 C.3       1 UNK         0.0864 
      6 C6        -81.6414   28.8504  -72.6709 C.3       11 UNK        -0.0881 
      7 S7        -80.9232   29.8922  -73.9868 S.3       11 UNK        -0.2682 
      8 C8        -79.5270   28.8807  -74.5761 C.3       11 UNK         0.0289 
      9 C9        -78.3530   28.8674  -73.6075 C.ar      11 UNK        -0.0687 
     10 C10       -78.2519   27.8643  -72.6405 C.ar      11 UNK        -0.0823 
     11 C11       -77.1747   27.8355  -71.7508 C.ar      11 UNK        -0.0830 
     12 C12       -76.1764   28.8085  -71.8510 C.ar      11 UNK        -0.1021 
     13 C13       -76.2574   29.8098  -72.8234 C.ar      11 UNK        -0.0753 
     14 C14       -77.3506   29.8383  -73.6956 C.ar      11 UNK        -0.0933 
     15 C15       -75.1715   30.8690  -72.9193 C.3       11 UNK         0.0166 
     16 S16       -73.8251   30.3396  -74.0212 S.3       11 UNK        -0.2615 
     17 C17       -72.7253   31.7989  -73.9371 C.3       11 UNK        -0.0865 
     18 CA        -71.3655   31.5331  -73.2328 C.3       10 UNK         0.0862 
     19 C         -71.4843   31.2792  -71.7024 C.2       10 UNK         0.5551 
     20 N         -70.7257   30.3551  -71.1234 N.am      10 UNK        -0.7319 
     21 O         -72.2552   31.9495  -71.0201 O.2       10 UNK        -0.5018 
     22 N         -70.5656   30.5239  -73.9439 N.am      10 UNK        -0.4509 
     23 C         -69.7298   30.7726  -74.9589 C.2       10 UNK         0.4899 
     24 O         -69.5019   31.9011  -75.3967 O.2       10 UNK        -0.4839 
     25 CA        -69.0114   29.5684  -75.6011 C.3       9 UNK         0.0222 
     26 CB        -67.5451   29.5142  -75.1407 C.3       9 UNK        -0.1966 
     27 N         -69.6459   28.2721  -75.3338 N.am      9 UNK        -0.4218 
     28 C         -70.8321   27.8839  -75.8220 C.2       9 UNK         0.5020 
     29 O         -71.5261   28.5822  -76.5644 O.2       9 UNK        -0.5274 
     30 CA        -71.3209   26.4974  -75.3601 C.3       8 UNK         0.0270 
     31 CB        -71.7362   26.5433  -73.8785 C.3       8 UNK        -0.1976 
     32 N         -72.4476   26.0011  -76.1560 N.am      8 UNK        -0.4313 
     33 C         -72.3673   25.6120  -77.4382 C.2       8 UNK         0.5041 
     34 O         -71.3029   25.5397  -78.0561 O.2       8 UNK        -0.5577 
     35 CA        -73.6687   25.2122  -78.1666 C.3       7 UNK         0.0284 
     36 CB        -73.6994   23.6970  -78.4281 C.3       7 UNK        -0.1958 
     37 N         -74.8919   25.5868  -77.4569 N.am      7 UNK        -0.4454 
     38 C         -75.3517   26.8346  -77.2939 C.2       7 UNK         0.5089 
     39 O         -74.8487   27.8234  -77.8263 O.2       7 UNK        -0.5125 
     40 CA        -76.5830   27.0116  -76.3820 C.3       6 UNK         0.0408 
     41 CB        -77.8332   27.2070  -77.2553 C.3       6 UNK        -0.1791 
     42 N         -76.8125   25.9062  -75.4375 N.am      6 UNK        -0.4762 
     43 C         -75.9391   25.4708  -74.5129 C.2       6 UNK         0.5007 
     44 O         -74.8209   25.9598  -74.3607 O.2       6 UNK        -0.5032 
     45 CA        -76.3290   24.2194  -73.6977 C.3       5 UNK         0.0783 
     46 C46       -77.1010   24.5405  -72.3981 C.3       11 UNK        -0.0857 
     47 S47       -76.0677   25.3566  -71.1354 S.3       11 UNK        -0.2512 
     48 C48       -77.1055   26.7743  -70.6618 C.3       11 UNK         0.0225 
     49 N         -77.0844   23.2833  -74.5297 N.am      5 UNK        -0.4615 
     50 C         -76.5329   22.3812  -75.3510 C.2       4 UNK         0.5053 
     51 O         -75.3206   22.1956  -75.4494 O.2       4 UNK        -0.5105 
     52 CA        -77.4962   21.5538  -76.2203 C.3       4 UNK         0.0263 
     53 CB        -77.8907   20.2553  -75.4988 C.3       4 UNK        -0.1981 
     54 N         -78.7070   22.2925  -76.5890 N.am      4 UNK        -0.4224 
     55 C         -78.7251   23.3500  -77.4129 C.2       3 UNK         0.4895 
     56 O         -77.7316   23.7723  -78.0041 O.2       3 UNK        -0.5091 
     57 CA        -80.0704   24.0777  -77.5839 C.3       3 UNK         0.0250 
     58 CB        -80.8365   23.5080  -78.7883 C.3       3 UNK        -0.1996 
     59 N         -80.9336   24.0438  -76.3967 N.am      3 UNK        -0.4254 
     60 C         -80.6328   24.5758  -75.2031 C.2       2 UNK         0.5004 
     61 O         -79.5465   25.0924  -74.9322 O.2       2 UNK        -0.5226 
     62 CA        -81.7063   24.4532  -74.1080 C.3       2 UNK         0.0269 
     63 CB        -81.2610   23.4321  -73.0479 C.3       2 UNK        -0.1926 
     64 N         -82.0169   25.7242  -73.4447 N.am      2 UNK        -0.4687 
     65 C         -82.4734   26.8344  -74.0473 C.2       1 UNK         0.5165 
     66 O         -82.6446   26.9345  -75.2632 O.2       1 UNK        -0.5079 
     67 H67       -84.8096   26.7266  -69.8512 H         1 UNK         0.0900 
     68 H68       -85.7233   25.5117  -70.7473 H         1 UNK         0.0900 
     69 H69       -86.4032   27.1220  -70.4975 H         1 UNK         0.0900 
     70 H70       -83.1626   27.6160  -71.0649 H         1 UNK         0.2959 
     71 H71       -83.5230   28.6636  -73.6985 H         1 UNK         0.1079 
     72 H72       -81.9543   29.5430  -71.8877 H         1 UNK         0.0837 
     73 H73       -80.8847   28.2241  -72.2042 H         1 UNK         0.0837 
     74 H74       -79.8672   27.8632  -74.7679 H         1 UNK         0.0685 
     75 H75       -79.1996   29.2780  -75.5377 H         1 UNK         0.0685 
     76 H76       -79.0174   27.1045  -72.5815 H         1 UNK         0.1434 
     77 H77       -75.3352   28.7871  -71.1714 H         1 UNK         0.1329 
     78 H78       -77.4178   30.6123  -74.4478 H         1 UNK         0.1335 
     79 H79       -75.5948   31.8050  -73.2872 H         1 UNK         0.0680 
     80 H80       -74.7682   31.0799  -71.9277 H         1 UNK         0.0680 
     81 H81       -73.2431   32.6314  -73.4573 H         1 UNK         0.1032 
     82 H82       -72.5412   32.1315  -74.9596 H         1 UNK         0.1032 
     83 H83       -70.8099   32.4717  -73.2763 H         1 UNK         0.0461 
     84 H84       -70.0353   29.8437  -71.6476 H         1 UNK         0.3453 
     85 H85       -70.8086   30.2098  -70.1294 H         1 UNK         0.3453 
     86 H86       -70.7253   29.5672  -73.6672 H         1 UNK         0.2984 
     87 H87       -69.0209   29.7271  -76.6816 H         1 UNK         0.0554 
     88 H88       -66.9957   28.7235  -75.6521 H         1 UNK         0.0847 
     89 H89       -67.4634   29.3419  -74.0668 H         1 UNK         0.0847 
     90 H90       -67.0323   30.4523  -75.3586 H         1 UNK         0.0847 
     91 H91       -69.1386   27.6374  -74.7333 H         1 UNK         0.3141 
     92 H92       -70.4957   25.7907  -75.4702 H         1 UNK         0.0743 
     93 H93       -72.5260   27.2766  -73.7060 H         1 UNK         0.0784 
     94 H94       -72.1035   25.5744  -73.5390 H         1 UNK         0.0784 
     95 H95       -70.8974   26.8101  -73.2350 H         1 UNK         0.0784 
     96 H96       -73.3602   26.0453  -75.7114 H         1 UNK         0.3213 
     97 H97       -73.6692   25.7268  -79.1298 H         1 UNK         0.0855 
     98 H98       -73.6835   23.1281  -77.4977 H         1 UNK         0.0814 
     99 H99       -72.8354   23.3840  -79.0159 H         1 UNK         0.0814 
    100 H100      -74.5914   23.4065  -78.9840 H         1 UNK         0.0814 
    101 H101      -75.4087   24.8403  -77.0132 H         1 UNK         0.3105 
    102 H102      -76.4289   27.9121  -75.7846 H         1 UNK         0.0547 
    103 H103      -77.8084   28.1788  -77.7494 H         1 UNK         0.0837 
    104 H104      -77.8953   26.4526  -78.0395 H         1 UNK         0.0837 
    105 H105      -78.7534   27.1558  -76.6774 H         1 UNK         0.0837 
    106 H106      -77.7375   25.4853  -75.4511 H         1 UNK         0.3020 
    107 H107      -75.3937   23.7341  -73.4069 H         1 UNK         0.1245 
    108 H108      -77.4609   23.6128  -71.9504 H         1 UNK         0.0781 
    109 H109      -77.9957   25.1211  -72.6148 H         1 UNK         0.0781 
    110 H110      -76.6975   27.2158  -69.7512 H         1 UNK         0.0836 
    111 H111      -78.1054   26.4232  -70.4018 H         1 UNK         0.0836 
    112 H112      -78.0861   23.4172  -74.5517 H         1 UNK         0.3022 
    113 H113      -76.9672   21.2894  -77.1387 H         1 UNK         0.0747 
    114 H114      -78.5134   19.6227  -76.1319 H         1 UNK         0.0793 
    115 H115      -77.0067   19.6737  -75.2330 H         1 UNK         0.0793 
    116 H116      -78.4392   20.4537  -74.5771 H         1 UNK         0.0793 
    117 H117      -79.5737   22.0009  -76.1615 H         1 UNK         0.3047 
    118 H118      -79.8505   25.1257  -77.7918 H         1 UNK         0.0822 
    119 H119      -81.7428   24.0795  -78.9894 H         1 UNK         0.0807 
    120 H120      -81.1221   22.4670  -78.6316 H         1 UNK         0.0807 
    121 H121      -80.2263   23.5457  -79.6921 H         1 UNK         0.0807 
    122 H122      -81.8454   23.6282  -76.5242 H         1 UNK         0.2946 
    123 H123      -82.6321   24.0948  -74.5633 H         1 UNK         0.1144 
    124 H124      -82.0397   23.2671  -72.3029 H         1 UNK         0.0793 
    125 H125      -80.3609   23.7594  -72.5255 H         1 UNK         0.0793 
    126 H126      -81.0408   22.4647  -73.5014 H         1 UNK         0.0793 
    127 H127      -81.9224   25.7379  -72.4402 H         1 UNK         0.2896 
@<TRIPOS>BOND
     1    1    2 1    
     2    1   67 1    
     3    1   68 1    
     4    1   69 1    
     5    2    3 2    
     6    2    4 am   BACKBONE|DICT|INTERRES
     7    4    5 1    
     8    4   70 1    
     9    5    6 1    
    10    5   65 1    
    11    5   71 1    
    12    6    7 1    
    13    6   72 1    
    14    6   73 1    
    15    7    8 1    
    16    8    9 1    
    17    8   74 1    
    18    8   75 1    
    19    9   10 ar   
    20    9   14 ar   
    21   10   11 ar   
    22   10   76 1    
    23   11   12 ar   
    24   11   48 1    
    25   12   13 ar   
    26   12   77 1    
    27   13   14 ar   
    28   13   15 1    
    29   14   78 1    
    30   15   16 1    
    31   15   79 1    
    32   15   80 1    
    33   16   17 1    
    34   17   18 1    
    35   17   81 1    
    36   17   82 1    
    37   18   19 1    
    38   18   22 1    
    39   18   83 1    
    40   19   20 am   BACKBONE|DICT|INTERRES
    41   19   21 2    
    42   20   84 1    
    43   20   85 1    
    44   22   23 am   BACKBONE|DICT|INTERRES
    45   22   86 1    
    46   23   24 2    
    47   23   25 1    
    48   25   26 1    
    49   25   27 1    
    50   25   87 1    
    51   26   88 1    
    52   26   89 1    
    53   26   90 1    
    54   27   28 am   BACKBONE|DICT|INTERRES
    55   27   91 1    
    56   28   29 2    
    57   28   30 1    
    58   30   31 1    
    59   30   32 1    
    60   30   92 1    
    61   31   93 1    
    62   31   94 1    
    63   31   95 1    
    64   32   33 am   BACKBONE|DICT|INTERRES
    65   32   96 1    
    66   33   34 2    
    67   33   35 1    
    68   35   36 1    
    69   35   37 1    
    70   35   97 1    
    71   36   98 1    
    72   36   99 1    
    73   36  100 1    
    74   37   38 am   BACKBONE|DICT|INTERRES
    75   37  101 1    
    76   38   39 2    
    77   38   40 1    
    78   40   41 1    
    79   40   42 1    
    80   40  102 1    
    81   41  103 1    
    82   41  104 1    
    83   41  105 1    
    84   42   43 am   BACKBONE|DICT|INTERRES
    85   42  106 1    
    86   43   44 2    
    87   43   45 1    
    88   45   46 1    
    89   45   49 1    
    90   45  107 1    
    91   46   47 1    
    92   46  108 1    
    93   46  109 1    
    94   47   48 1    
    95   48  110 1    
    96   48  111 1    
    97   49   50 am   BACKBONE|DICT|INTERRES
    98   49  112 1    
    99   50   51 2    
   100   50   52 1    
   101   52   53 1    
   102   52   54 1    
   103   52  113 1    
   104   53  114 1    
   105   53  115 1    
   106   53  116 1    
   107   54   55 am   BACKBONE|DICT|INTERRES
   108   54  117 1    
   109   55   56 2    
   110   55   57 1    
   111   57   58 1    
   112   57   59 1    
   113   57  118 1    
   114   58  119 1    
   115   58  120 1    
   116   58  121 1    
   117   59   60 am   BACKBONE|DICT|INTERRES
   118   59  122 1    
   119   60   61 2    
   120   60   62 1    
   121   62   63 1    
   122   62   64 1    
   123   62  123 1    
   124   63  124 1    
   125   63  125 1    
   126   63  126 1    
   127   64   65 am   BACKBONE|DICT|INTERRES
   128   64  127 1    
   129   65   66 2    
@<TRIPOS>SUBSTRUCTURE
     1 UNK         1 GROUP             0       ****    0 ROOT    
