@<TRIPOS>MOLECULE
3R135
127   129    1
SMALL
USER_CHARGES


@<TRIPOS>ATOM
      1 CA        -83.9381   28.6308  -78.4453 C.3       0 UNK        -0.1998 
      2 C         -82.8146   28.0445  -77.6039 C.2       0 UNK         0.4909 
      3 O         -82.3110   26.9659  -77.9203 O.2       0 UNK        -0.5240 
      4 N         -82.4122   28.7479  -76.5369 N.am      1 UNK        -0.4739 
      5 CA        -81.3881   28.3026  -75.5874 C.3       1 UNK         0.0864 
      6 C6        -80.8977   29.4718  -74.6950 C.3       11 UNK        -0.0881 
      7 S7        -79.1620   29.2575  -74.1869 S.3       11 UNK        -0.2682 
      8 C8        -79.3352   28.9121  -72.4095 C.3       11 UNK         0.0289 
      9 C9        -78.0058   28.4782  -71.8094 C.ar      11 UNK        -0.0687 
     10 C10       -77.8403   27.1805  -71.3170 C.ar      11 UNK        -0.0823 
     11 C11       -76.6117   26.7668  -70.7934 C.ar      11 UNK        -0.0830 
     12 C12       -75.5427   27.6685  -70.7570 C.ar      11 UNK        -0.1021 
     13 C13       -75.6997   28.9738  -71.2341 C.ar      11 UNK        -0.0753 
     14 C14       -76.9346   29.3743  -71.7515 C.ar      11 UNK        -0.0933 
     15 C15       -74.5356   29.9508  -71.2147 C.3       11 UNK         0.0166 
     16 S16       -73.7013   29.9601  -72.8254 S.3       11 UNK        -0.2615 
     17 C17       -72.5317   31.3424  -72.6254 C.3       11 UNK        -0.0865 
     18 CA        -71.7212   31.6061  -73.9289 C.3       10 UNK         0.0862 
     19 C         -70.9143   32.9406  -73.8827 C.2       10 UNK         0.5551 
     20 N         -69.7787   33.0464  -74.5622 N.am      10 UNK        -0.7319 
     21 O         -71.3360   33.9071  -73.2517 O.2       10 UNK        -0.5018 
     22 N         -70.9510   30.4272  -74.3709 N.am      10 UNK        -0.4509 
     23 C         -69.9206   29.8640  -73.7210 C.2       10 UNK         0.4899 
     24 O         -69.4484   30.2991  -72.6693 O.2       10 UNK        -0.4839 
     25 CA        -69.3154   28.6027  -74.3711 C.3       9 UNK         0.0222 
     26 CB        -68.3914   27.8091  -73.4218 C.3       9 UNK        -0.1966 
     27 N         -70.3410   27.7391  -74.9689 N.am      9 UNK        -0.4218 
     28 C         -71.3403   27.1056  -74.3368 C.2       9 UNK         0.5020 
     29 O         -71.4757   27.0570  -73.1129 O.2       9 UNK        -0.5274 
     30 CA        -72.3823   26.4347  -75.2476 C.3       8 UNK         0.0270 
     31 CB        -72.8570   25.0886  -74.6754 C.3       8 UNK        -0.1976 
     32 N         -73.5391   27.3057  -75.4739 N.am      8 UNK        -0.4313 
     33 C         -73.5179   28.4576  -76.1635 C.2       8 UNK         0.5041 
     34 O         -72.4911   28.9269  -76.6620 O.2       8 UNK        -0.5577 
     35 CA        -74.8493   29.2260  -76.3226 C.3       7 UNK         0.0284 
     36 CB        -74.8988   30.0592  -77.6210 C.3       7 UNK        -0.1958 
     37 N         -76.0464   28.3857  -76.1964 N.am      7 UNK        -0.4454 
     38 C         -76.4048   27.3488  -76.9676 C.2       7 UNK         0.5089 
     39 O         -75.7844   26.9647  -77.9605 O.2       7 UNK        -0.5125 
     40 CA        -77.6645   26.5887  -76.5131 C.3       6 UNK         0.0408 
     41 CB        -78.6057   26.3113  -77.6968 C.3       6 UNK        -0.1791 
     42 N         -77.3605   25.3380  -75.8074 N.am      6 UNK        -0.4762 
     43 C         -76.5820   25.2272  -74.7145 C.2       6 UNK         0.5007 
     44 O         -75.9968   26.1841  -74.2091 O.2       6 UNK        -0.5032 
     45 CA        -76.4171   23.8351  -74.0635 C.3       5 UNK         0.0783 
     46 C46       -76.9120   23.8152  -72.5918 C.3       11 UNK        -0.0857 
     47 S47       -75.5901   24.2456  -71.4072 S.3       11 UNK        -0.2512 
     48 C48       -76.4447   25.3567  -70.2427 C.3       11 UNK         0.0225 
     49 N         -77.0465   22.7722  -74.8518 N.am      5 UNK        -0.4615 
     50 C         -76.4387   22.1077  -75.8450 C.2       4 UNK         0.5053 
     51 O         -75.2728   22.3105  -76.1838 O.2       4 UNK        -0.5105 
     52 CA        -77.2532   21.0366  -76.5966 C.3       4 UNK         0.0263 
     53 CB        -76.8786   19.6316  -76.0974 C.3       4 UNK        -0.1981 
     54 N         -78.7057   21.2064  -76.5005 N.am      4 UNK        -0.4224 
     55 C         -79.3912   22.2469  -76.9924 C.2       3 UNK         0.4895 
     56 O         -78.8653   23.1779  -77.6003 O.2       3 UNK        -0.5091 
     57 CA        -80.9093   22.2868  -76.7353 C.3       3 UNK         0.0250 
     58 CB        -81.4942   20.9587  -76.2010 C.3       3 UNK        -0.1996 
     59 N         -81.2876   23.3976  -75.8520 N.am      3 UNK        -0.4254 
     60 C         -80.8130   23.6497  -74.6226 C.2       2 UNK         0.5004 
     61 O         -79.9036   23.0123  -74.0859 O.2       2 UNK        -0.5226 
     62 CA        -81.4528   24.8382  -73.8954 C.3       2 UNK         0.0269 
     63 CB        -81.0600   24.9229  -72.4096 C.3       2 UNK        -0.1926 
     64 N         -81.0864   26.0745  -74.5848 N.am      2 UNK        -0.4687 
     65 C         -81.9109   27.1156  -74.7505 C.2       1 UNK         0.5165 
     66 O         -83.0476   27.1689  -74.2736 O.2       1 UNK        -0.5079 
     67 H67       -84.2795   29.5908  -78.0584 H         1 UNK         0.0900 
     68 H68       -84.7885   27.9497  -78.4615 H         1 UNK         0.0900 
     69 H69       -83.6004   28.7792  -79.4706 H         1 UNK         0.0900 
     70 H70       -82.8845   29.6101  -76.3047 H         1 UNK         0.2959 
     71 H71       -80.5491   27.9539  -76.1923 H         1 UNK         0.1079 
     72 H72       -80.9324   30.4087  -75.2537 H         1 UNK         0.0837 
     73 H73       -81.5433   29.6260  -73.8276 H         1 UNK         0.0837 
     74 H74       -79.6935   29.8063  -71.8977 H         1 UNK         0.0685 
     75 H75       -80.0931   28.1406  -72.2646 H         1 UNK         0.0685 
     76 H76       -78.6693   26.4912  -71.3391 H         1 UNK         0.1434 
     77 H77       -74.5863   27.3510  -70.3643 H         1 UNK         0.1329 
     78 H78       -77.0558   30.3783  -72.1347 H         1 UNK         0.1335 
     79 H79       -74.8959   30.9538  -70.9807 H         1 UNK         0.0680 
     80 H80       -73.8200   29.6832  -70.4357 H         1 UNK         0.0680 
     81 H81       -71.8650   31.1340  -71.7873 H         1 UNK         0.1032 
     82 H82       -73.1094   32.2254  -72.3458 H         1 UNK         0.1032 
     83 H83       -72.4506   31.7721  -74.7227 H         1 UNK         0.0461 
     84 H84       -69.2660   33.9137  -74.5387 H         1 UNK         0.3453 
     85 H85       -69.4287   32.2649  -75.0927 H         1 UNK         0.3453 
     86 H86       -71.2848   29.9848  -75.2201 H         1 UNK         0.2984 
     87 H87       -68.7013   28.9579  -75.1998 H         1 UNK         0.0554 
     88 H88       -67.9802   26.9269  -73.9122 H         1 UNK         0.0847 
     89 H89       -68.9156   27.4809  -72.5238 H         1 UNK         0.0847 
     90 H90       -67.5486   28.4206  -73.0973 H         1 UNK         0.0847 
     91 H91       -70.3778   27.7521  -75.9802 H         1 UNK         0.3141 
     92 H92       -71.9188   26.2332  -76.2157 H         1 UNK         0.0743 
     93 H93       -73.3940   25.2179  -73.7344 H         1 UNK         0.0784 
     94 H94       -73.5149   24.5741  -75.3759 H         1 UNK         0.0784 
     95 H95       -72.0120   24.4273  -74.4800 H         1 UNK         0.0784 
     96 H96       -74.4135   27.0194  -75.0399 H         1 UNK         0.3213 
     97 H97       -74.8909   29.9276  -75.4895 H         1 UNK         0.0855 
     98 H98       -74.0956   30.7968  -77.6434 H         1 UNK         0.0814 
     99 H99       -75.8385   30.6043  -77.7081 H         1 UNK         0.0814 
    100 H100      -74.7884   29.4337  -78.5072 H         1 UNK         0.0814 
    101 H101      -76.6041   28.5579  -75.3692 H         1 UNK         0.3105 
    102 H102      -78.2069   27.2164  -75.8101 H         1 UNK         0.0547 
    103 H103      -78.8705   27.2363  -78.2104 H         1 UNK         0.0837 
    104 H104      -78.1421   25.6541  -78.4335 H         1 UNK         0.0837 
    105 H105      -79.5364   25.8449  -77.3737 H         1 UNK         0.0837 
    106 H106      -77.7538   24.4936  -76.2066 H         1 UNK         0.3020 
    107 H107      -75.3436   23.6371  -74.0513 H         1 UNK         0.1245 
    108 H108      -77.2542   22.8157  -72.3183 H         1 UNK         0.0781 
    109 H109      -77.7761   24.4642  -72.4544 H         1 UNK         0.0781 
    110 H110      -75.8657   25.4016  -69.3191 H         1 UNK         0.0836 
    111 H111      -77.4101   24.9277  -69.9694 H         1 UNK         0.0836 
    112 H112      -78.0228   22.5824  -74.6423 H         1 UNK         0.3022 
    113 H113      -76.9815   21.1083  -77.6520 H         1 UNK         0.0747 
    114 H114      -77.3771   18.8563  -76.6796 H         1 UNK         0.0793 
    115 H115      -75.8049   19.4592  -76.1854 H         1 UNK         0.0793 
    116 H116      -77.1460   19.4913  -75.0492 H         1 UNK         0.0793 
    117 H117      -79.2135   20.5013  -75.9861 H         1 UNK         0.3047 
    118 H118      -81.3724   22.4858  -77.7031 H         1 UNK         0.0822 
    119 H119      -82.5808   21.0136  -76.1334 H         1 UNK         0.0807 
    120 H120      -81.1198   20.7091  -75.2073 H         1 UNK         0.0807 
    121 H121      -81.2620   20.1263  -76.8670 H         1 UNK         0.0807 
    122 H122      -81.9830   24.0286  -76.2268 H         1 UNK         0.2946 
    123 H123      -82.5341   24.6875  -73.9464 H         1 UNK         0.1144 
    124 H124      -81.3681   24.0236  -71.8748 H         1 UNK         0.0793 
    125 H125      -81.5329   25.7730  -71.9178 H         1 UNK         0.0793 
    126 H126      -79.9843   25.0170  -72.2897 H         1 UNK         0.0793 
    127 H127      -80.1675   26.0904  -75.0044 H         1 UNK         0.2896 
@<TRIPOS>BOND
     1    1    2 1    
     2    1   67 1    
     3    1   68 1    
     4    1   69 1    
     5    2    3 2    
     6    2    4 am   BACKBONE|DICT|INTERRES
     7    4    5 1    
     8    4   70 1    
     9    5    6 1    
    10    5   65 1    
    11    5   71 1    
    12    6    7 1    
    13    6   72 1    
    14    6   73 1    
    15    7    8 1    
    16    8    9 1    
    17    8   74 1    
    18    8   75 1    
    19    9   10 ar   
    20    9   14 ar   
    21   10   11 ar   
    22   10   76 1    
    23   11   12 ar   
    24   11   48 1    
    25   12   13 ar   
    26   12   77 1    
    27   13   14 ar   
    28   13   15 1    
    29   14   78 1    
    30   15   16 1    
    31   15   79 1    
    32   15   80 1    
    33   16   17 1    
    34   17   18 1    
    35   17   81 1    
    36   17   82 1    
    37   18   19 1    
    38   18   22 1    
    39   18   83 1    
    40   19   20 am   BACKBONE|DICT|INTERRES
    41   19   21 2    
    42   20   84 1    
    43   20   85 1    
    44   22   23 am   BACKBONE|DICT|INTERRES
    45   22   86 1    
    46   23   24 2    
    47   23   25 1    
    48   25   26 1    
    49   25   27 1    
    50   25   87 1    
    51   26   88 1    
    52   26   89 1    
    53   26   90 1    
    54   27   28 am   BACKBONE|DICT|INTERRES
    55   27   91 1    
    56   28   29 2    
    57   28   30 1    
    58   30   31 1    
    59   30   32 1    
    60   30   92 1    
    61   31   93 1    
    62   31   94 1    
    63   31   95 1    
    64   32   33 am   BACKBONE|DICT|INTERRES
    65   32   96 1    
    66   33   34 2    
    67   33   35 1    
    68   35   36 1    
    69   35   37 1    
    70   35   97 1    
    71   36   98 1    
    72   36   99 1    
    73   36  100 1    
    74   37   38 am   BACKBONE|DICT|INTERRES
    75   37  101 1    
    76   38   39 2    
    77   38   40 1    
    78   40   41 1    
    79   40   42 1    
    80   40  102 1    
    81   41  103 1    
    82   41  104 1    
    83   41  105 1    
    84   42   43 am   BACKBONE|DICT|INTERRES
    85   42  106 1    
    86   43   44 2    
    87   43   45 1    
    88   45   46 1    
    89   45   49 1    
    90   45  107 1    
    91   46   47 1    
    92   46  108 1    
    93   46  109 1    
    94   47   48 1    
    95   48  110 1    
    96   48  111 1    
    97   49   50 am   BACKBONE|DICT|INTERRES
    98   49  112 1    
    99   50   51 2    
   100   50   52 1    
   101   52   53 1    
   102   52   54 1    
   103   52  113 1    
   104   53  114 1    
   105   53  115 1    
   106   53  116 1    
   107   54   55 am   BACKBONE|DICT|INTERRES
   108   54  117 1    
   109   55   56 2    
   110   55   57 1    
   111   57   58 1    
   112   57   59 1    
   113   57  118 1    
   114   58  119 1    
   115   58  120 1    
   116   58  121 1    
   117   59   60 am   BACKBONE|DICT|INTERRES
   118   59  122 1    
   119   60   61 2    
   120   60   62 1    
   121   62   63 1    
   122   62   64 1    
   123   62  123 1    
   124   63  124 1    
   125   63  125 1    
   126   63  126 1    
   127   64   65 am   BACKBONE|DICT|INTERRES
   128   64  127 1    
   129   65   66 2    
@<TRIPOS>SUBSTRUCTURE
     1 UNK         1 GROUP             0       ****    0 ROOT    
