@<TRIPOS>MOLECULE
3R135
127   129    1
SMALL
USER_CHARGES


@<TRIPOS>ATOM
      1 CA        -84.8743   29.6181  -72.8483 C.3       0 UNK        -0.1998 
      2 C         -84.1981   28.5032  -72.0544 C.2       0 UNK         0.4909 
      3 O         -84.2514   28.5273  -70.8264 O.2       0 UNK        -0.5240 
      4 N         -83.5514   27.5130  -72.6824 N.am      1 UNK        -0.4739 
      5 CA        -83.4254   27.2862  -74.1261 C.3       1 UNK         0.0864 
      6 C6        -82.4819   28.2881  -74.8578 C.3       11 UNK        -0.0881 
      7 S7        -80.7217   28.2252  -74.3622 S.3       11 UNK        -0.2682 
      8 C8        -80.6497   29.5078  -73.0716 C.3       11 UNK         0.0289 
      9 C9        -79.3225   29.4528  -72.3327 C.ar      11 UNK        -0.0687 
     10 C10       -79.0439   28.3731  -71.4891 C.ar      11 UNK        -0.0823 
     11 C11       -77.8020   28.2709  -70.8585 C.ar      11 UNK        -0.0830 
     12 C12       -76.8644   29.2982  -71.0118 C.ar      11 UNK        -0.1021 
     13 C13       -77.1229   30.3725  -71.8673 C.ar      11 UNK        -0.0753 
     14 C14       -78.3574   30.4477  -72.5217 C.ar      11 UNK        -0.0933 
     15 C15       -76.0524   31.4257  -72.1214 C.3       11 UNK         0.0166 
     16 S16       -74.8730   30.8901  -73.4094 S.3       11 UNK        -0.2615 
     17 C17       -73.7127   29.8390  -72.4643 C.3       11 UNK        -0.0865 
     18 CA        -72.2482   29.9396  -72.9691 C.3       10 UNK         0.0862 
     19 C         -71.2580   29.2457  -71.9845 C.2       10 UNK         0.5551 
     20 N         -70.4049   28.3230  -72.4154 N.am      10 UNK        -0.7319 
     21 O         -71.2567   29.5612  -70.7972 O.2       10 UNK        -0.5018 
     22 N         -72.1194   29.4815  -74.3625 N.am      10 UNK        -0.4509 
     23 C         -71.1802   29.9073  -75.2160 C.2       10 UNK         0.4899 
     24 O         -70.3697   30.7966  -74.9485 O.2       10 UNK        -0.4839 
     25 CA        -71.1356   29.2175  -76.5945 C.3       9 UNK         0.0222 
     26 CB        -69.8484   29.5366  -77.3841 C.3       9 UNK        -0.1966 
     27 N         -71.3519   27.7658  -76.5369 N.am      9 UNK        -0.4218 
     28 C         -70.6407   26.8564  -75.8502 C.2       9 UNK         0.5020 
     29 O         -69.6909   27.1518  -75.1231 O.2       9 UNK        -0.5274 
     30 CA        -71.0503   25.3705  -75.9587 C.3       8 UNK         0.0270 
     31 CB        -71.3076   24.7711  -74.5647 C.3       8 UNK        -0.1976 
     32 N         -72.2295   25.1375  -76.7975 N.am      8 UNK        -0.4313 
     33 C         -72.2366   25.0963  -78.1370 C.2       8 UNK         0.5041 
     34 O         -71.2206   25.1557  -78.8296 O.2       8 UNK        -0.5577 
     35 CA        -73.6178   25.0433  -78.8191 C.3       7 UNK         0.0284 
     36 CB        -74.1049   23.5932  -78.9644 C.3       7 UNK        -0.1958 
     37 N         -74.6280   25.8371  -78.1100 N.am      7 UNK        -0.4454 
     38 C         -74.5626   27.1650  -77.9309 C.2       7 UNK         0.5089 
     39 O         -73.6913   27.8786  -78.4257 O.2       7 UNK        -0.5125 
     40 CA        -75.5880   27.7920  -76.9754 C.3       6 UNK         0.0408 
     41 CB        -76.9017   28.1188  -77.7021 C.3       6 UNK        -0.1791 
     42 N         -75.8519   26.9306  -75.8221 N.am      6 UNK        -0.4762 
     43 C         -74.9833   26.7094  -74.8235 C.2       6 UNK         0.5007 
     44 O         -73.8705   27.2297  -74.7575 O.2       6 UNK        -0.5032 
     45 CA        -75.4430   25.7459  -73.7095 C.3       5 UNK         0.0783 
     46 C46       -76.2951   26.5487  -72.7082 C.3       11 UNK        -0.0857 
     47 S47       -77.0218   25.6272  -71.3099 S.3       11 UNK        -0.2512 
     48 C48       -77.4147   26.9849  -70.1357 C.3       11 UNK         0.0225 
     49 N         -76.1500   24.5833  -74.2494 N.am      5 UNK        -0.4615 
     50 C         -75.5944   23.6642  -75.0506 C.2       4 UNK         0.5053 
     51 O         -74.4077   23.6694  -75.3758 O.2       4 UNK        -0.5105 
     52 CA        -76.5371   22.5984  -75.6347 C.3       4 UNK         0.0263 
     53 CB        -76.6886   21.4195  -74.6613 C.3       4 UNK        -0.1981 
     54 N         -77.8621   23.1305  -75.9683 N.am      4 UNK        -0.4224 
     55 C         -78.1066   24.1232  -76.8332 C.2       3 UNK         0.4895 
     56 O         -77.2261   24.6707  -77.4967 O.2       3 UNK        -0.5091 
     57 CA        -79.5531   24.6392  -76.9487 C.3       3 UNK         0.0250 
     58 CB        -80.3176   23.8943  -78.0593 C.3       3 UNK        -0.1996 
     59 N         -80.3126   24.6594  -75.6865 N.am      3 UNK        -0.4254 
     60 C         -80.7411   23.6286  -74.9400 C.2       2 UNK         0.5004 
     61 O         -80.5001   22.4497  -75.2010 O.2       2 UNK        -0.5226 
     62 CA        -81.5312   23.9557  -73.6590 C.3       2 UNK         0.0269 
     63 CB        -80.6507   23.7151  -72.4205 C.3       2 UNK        -0.1926 
     64 N         -82.0520   25.3251  -73.6040 N.am      2 UNK        -0.4687 
     65 C         -83.0425   25.8145  -74.3668 C.2       1 UNK         0.5165 
     66 O         -83.6556   25.1491  -75.2017 O.2       1 UNK        -0.5079 
     67 H67       -85.6648   30.0738  -72.2524 H         1 UNK         0.0900 
     68 H68       -84.1541   30.3983  -73.0917 H         1 UNK         0.0900 
     69 H69       -85.3330   29.2626  -73.7687 H         1 UNK         0.0900 
     70 H70       -83.1679   26.7718  -72.1129 H         1 UNK         0.2959 
     71 H71       -84.4204   27.3895  -74.5628 H         1 UNK         0.1079 
     72 H72       -82.8423   29.3098  -74.7438 H         1 UNK         0.0837 
     73 H73       -82.5218   28.0989  -75.9322 H         1 UNK         0.0837 
     74 H74       -81.4562   29.3639  -72.3539 H         1 UNK         0.0685 
     75 H75       -80.8058   30.4874  -73.5259 H         1 UNK         0.0685 
     76 H76       -79.7665   27.5757  -71.3823 H         1 UNK         0.1434 
     77 H77       -75.8993   29.2191  -70.5314 H         1 UNK         0.1329 
     78 H78       -78.5577   31.2696  -73.1955 H         1 UNK         0.1335 
     79 H79       -76.5203   32.3557  -72.4478 H         1 UNK         0.0680 
     80 H80       -75.5245   31.6648  -71.1972 H         1 UNK         0.0680 
     81 H81       -74.0502   28.8059  -72.5129 H         1 UNK         0.1032 
     82 H82       -73.7671   30.1267  -71.4131 H         1 UNK         0.1032 
     83 H83       -71.9801   30.9975  -72.9409 H         1 UNK         0.0461 
     84 H84       -69.7735   27.8964  -71.7567 H         1 UNK         0.3453 
     85 H85       -70.3524   28.0692  -73.3949 H         1 UNK         0.3453 
     86 H86       -72.7327   28.7170  -74.6358 H         1 UNK         0.2984 
     87 H87       -71.9750   29.6258  -77.1585 H         1 UNK         0.0554 
     88 H88       -69.7408   30.6103  -77.5426 H         1 UNK         0.0847 
     89 H89       -69.8597   29.0657  -78.3671 H         1 UNK         0.0847 
     90 H90       -68.9566   29.1941  -76.8581 H         1 UNK         0.0847 
     91 H91       -72.1359   27.4360  -77.0877 H         1 UNK         0.3141 
     92 H92       -70.2040   24.8404  -76.4003 H         1 UNK         0.0743 
     93 H93       -70.4198   24.8431  -73.9350 H         1 UNK         0.0784 
     94 H94       -72.1155   25.2875  -74.0465 H         1 UNK         0.0784 
     95 H95       -71.5723   23.7155  -74.6288 H         1 UNK         0.0784 
     96 H96       -73.1085   25.0008  -76.3089 H         1 UNK         0.3213 
     97 H97       -73.5086   25.4681  -79.8193 H         1 UNK         0.0855 
     98 H98       -74.2132   23.1028  -77.9972 H         1 UNK         0.0814 
     99 H99       -73.3987   23.0034  -79.5502 H         1 UNK         0.0814 
    100 H100      -75.0682   23.5464  -79.4729 H         1 UNK         0.0814 
    101 H101      -75.4239   25.3382  -77.7198 H         1 UNK         0.3105 
    102 H102      -75.1684   28.7300  -76.6042 H         1 UNK         0.0547 
    103 H103      -77.6203   28.5894  -77.0308 H         1 UNK         0.0837 
    104 H104      -77.3690   27.2300  -78.1258 H         1 UNK         0.0837 
    105 H105      -76.7251   28.8134  -78.5244 H         1 UNK         0.0837 
    106 H106      -76.7272   26.4280  -75.8229 H         1 UNK         0.3020 
    107 H107      -74.5505   25.3826  -73.1949 H         1 UNK         0.1245 
    108 H108      -77.1136   27.0553  -73.2253 H         1 UNK         0.0781 
    109 H109      -75.6660   27.3267  -72.2823 H         1 UNK         0.0781 
    110 H110      -78.2255   26.6691  -69.4777 H         1 UNK         0.0836 
    111 H111      -76.5495   27.1567  -69.4937 H         1 UNK         0.0836 
    112 H112      -77.1251   24.4953  -74.0063 H         1 UNK         0.3022 
    113 H113      -76.0876   22.2284  -76.5582 H         1 UNK         0.0747 
    114 H114      -77.2885   20.6204  -75.0974 H         1 UNK         0.0793 
    115 H115      -75.7162   20.9936  -74.4100 H         1 UNK         0.0793 
    116 H116      -77.1639   21.7237  -73.7277 H         1 UNK         0.0793 
    117 H117      -78.6679   22.7098  -75.5119 H         1 UNK         0.3047 
    118 H118      -79.4779   25.6840  -77.2548 H         1 UNK         0.0822 
    119 H119      -81.3186   24.3043  -78.1942 H         1 UNK         0.0807 
    120 H120      -80.4172   22.8297  -77.8457 H         1 UNK         0.0807 
    121 H121      -79.7988   23.9842  -79.0147 H         1 UNK         0.0807 
    122 H122      -80.5358   25.5833  -75.3419 H         1 UNK         0.2946 
    123 H123      -82.3784   23.2668  -73.6227 H         1 UNK         0.1144 
    124 H124      -79.7933   24.3891  -72.3958 H         1 UNK         0.0793 
    125 H125      -80.2632   22.6952  -72.4058 H         1 UNK         0.0793 
    126 H126      -81.2149   23.8560  -71.4984 H         1 UNK         0.0793 
    127 H127      -81.5686   25.9626  -72.9877 H         1 UNK         0.2896 
@<TRIPOS>BOND
     1    1    2 1    
     2    1   67 1    
     3    1   68 1    
     4    1   69 1    
     5    2    3 2    
     6    2    4 am   BACKBONE|DICT|INTERRES
     7    4    5 1    
     8    4   70 1    
     9    5    6 1    
    10    5   65 1    
    11    5   71 1    
    12    6    7 1    
    13    6   72 1    
    14    6   73 1    
    15    7    8 1    
    16    8    9 1    
    17    8   74 1    
    18    8   75 1    
    19    9   10 ar   
    20    9   14 ar   
    21   10   11 ar   
    22   10   76 1    
    23   11   12 ar   
    24   11   48 1    
    25   12   13 ar   
    26   12   77 1    
    27   13   14 ar   
    28   13   15 1    
    29   14   78 1    
    30   15   16 1    
    31   15   79 1    
    32   15   80 1    
    33   16   17 1    
    34   17   18 1    
    35   17   81 1    
    36   17   82 1    
    37   18   19 1    
    38   18   22 1    
    39   18   83 1    
    40   19   20 am   BACKBONE|DICT|INTERRES
    41   19   21 2    
    42   20   84 1    
    43   20   85 1    
    44   22   23 am   BACKBONE|DICT|INTERRES
    45   22   86 1    
    46   23   24 2    
    47   23   25 1    
    48   25   26 1    
    49   25   27 1    
    50   25   87 1    
    51   26   88 1    
    52   26   89 1    
    53   26   90 1    
    54   27   28 am   BACKBONE|DICT|INTERRES
    55   27   91 1    
    56   28   29 2    
    57   28   30 1    
    58   30   31 1    
    59   30   32 1    
    60   30   92 1    
    61   31   93 1    
    62   31   94 1    
    63   31   95 1    
    64   32   33 am   BACKBONE|DICT|INTERRES
    65   32   96 1    
    66   33   34 2    
    67   33   35 1    
    68   35   36 1    
    69   35   37 1    
    70   35   97 1    
    71   36   98 1    
    72   36   99 1    
    73   36  100 1    
    74   37   38 am   BACKBONE|DICT|INTERRES
    75   37  101 1    
    76   38   39 2    
    77   38   40 1    
    78   40   41 1    
    79   40   42 1    
    80   40  102 1    
    81   41  103 1    
    82   41  104 1    
    83   41  105 1    
    84   42   43 am   BACKBONE|DICT|INTERRES
    85   42  106 1    
    86   43   44 2    
    87   43   45 1    
    88   45   46 1    
    89   45   49 1    
    90   45  107 1    
    91   46   47 1    
    92   46  108 1    
    93   46  109 1    
    94   47   48 1    
    95   48  110 1    
    96   48  111 1    
    97   49   50 am   BACKBONE|DICT|INTERRES
    98   49  112 1    
    99   50   51 2    
   100   50   52 1    
   101   52   53 1    
   102   52   54 1    
   103   52  113 1    
   104   53  114 1    
   105   53  115 1    
   106   53  116 1    
   107   54   55 am   BACKBONE|DICT|INTERRES
   108   54  117 1    
   109   55   56 2    
   110   55   57 1    
   111   57   58 1    
   112   57   59 1    
   113   57  118 1    
   114   58  119 1    
   115   58  120 1    
   116   58  121 1    
   117   59   60 am   BACKBONE|DICT|INTERRES
   118   59  122 1    
   119   60   61 2    
   120   60   62 1    
   121   62   63 1    
   122   62   64 1    
   123   62  123 1    
   124   63  124 1    
   125   63  125 1    
   126   63  126 1    
   127   64   65 am   BACKBONE|DICT|INTERRES
   128   64  127 1    
   129   65   66 2    
@<TRIPOS>SUBSTRUCTURE
     1 UNK         1 GROUP             0       ****    0 ROOT    
