@<TRIPOS>MOLECULE
3R135
127   129    1
SMALL
USER_CHARGES


@<TRIPOS>ATOM
      1 CA        -79.0985   32.1872  -75.1626 C.3       0 UNK        -0.1998 
      2 C         -79.2096   30.7150  -74.7964 C.2       0 UNK         0.4909 
      3 O         -78.3322   29.9259  -75.1509 O.2       0 UNK        -0.5240 
      4 N         -80.2798   30.3511  -74.0813 N.am      1 UNK        -0.4739 
      5 CA        -80.6134   28.9797  -73.6879 C.3       1 UNK         0.0864 
      6 C6        -81.7589   28.9926  -72.6428 C.3       11 UNK        -0.0881 
      7 S7        -81.8253   27.4827  -71.6214 S.3       11 UNK        -0.2682 
      8 C8        -81.1506   28.0759  -70.0370 C.3       11 UNK         0.0289 
      9 C9        -79.6343   28.1798  -70.0831 C.ar      11 UNK        -0.0687 
     10 C10       -78.8567   27.0478  -69.8308 C.ar      11 UNK        -0.0823 
     11 C11       -77.4635   27.1187  -69.8878 C.ar      11 UNK        -0.0830 
     12 C12       -76.8482   28.3437  -70.1649 C.ar      11 UNK        -0.1021 
     13 C13       -77.6124   29.4847  -70.4453 C.ar      11 UNK        -0.0753 
     14 C14       -79.0078   29.3923  -70.3890 C.ar      11 UNK        -0.0933 
     15 C15       -76.9793   30.8322  -70.8087 C.3       11 UNK         0.0166 
     16 S16       -75.2783   30.7593  -71.4801 S.3       11 UNK        -0.2615 
     17 C17       -75.5170   29.7268  -72.9688 C.3       11 UNK        -0.0865 
     18 CA        -74.5024   29.9845  -74.1136 C.3       10 UNK         0.0862 
     19 C         -74.7414   31.3254  -74.8641 C.2       10 UNK         0.5551 
     20 N         -75.8732   31.4648  -75.5370 N.am      10 UNK        -0.7319 
     21 O         -73.9103   32.2317  -74.8612 O.2       10 UNK        -0.5018 
     22 N         -73.1178   29.8241  -73.6412 N.am      10 UNK        -0.4509 
     23 C         -72.0131   29.5787  -74.3603 C.2       10 UNK         0.4899 
     24 O         -70.8992   29.6437  -73.8415 O.2       10 UNK        -0.4839 
     25 CA        -72.1239   29.1626  -75.8444 C.3       9 UNK         0.0222 
     26 CB        -71.0812   29.8699  -76.7365 C.3       9 UNK        -0.1966 
     27 N         -72.0676   27.7011  -75.9644 N.am      9 UNK        -0.4218 
     28 C         -71.0154   26.8811  -75.8101 C.2       9 UNK         0.5020 
     29 O         -69.8557   27.2526  -75.6260 O.2       9 UNK        -0.5274 
     30 CA        -71.2947   25.3675  -75.8708 C.3       8 UNK         0.0270 
     31 CB        -71.4324   24.7949  -74.4505 C.3       8 UNK        -0.1976 
     32 N         -72.4814   25.0148  -76.6569 N.am      8 UNK        -0.4313 
     33 C         -72.5620   25.1016  -77.9928 C.2       8 UNK         0.5041 
     34 O         -71.6226   25.4400  -78.7142 O.2       8 UNK        -0.5577 
     35 CA        -73.9210   24.7711  -78.6368 C.3       7 UNK         0.0284 
     36 CB        -74.0919   23.2528  -78.8009 C.3       7 UNK        -0.1958 
     37 N         -75.0555   25.3189  -77.8890 N.am      7 UNK        -0.4454 
     38 C         -75.3000   26.6280  -77.7292 C.2       7 UNK         0.5089 
     39 O         -74.6350   27.5219  -78.2520 O.2       7 UNK        -0.5125 
     40 CA        -76.4540   27.0082  -76.7864 C.3       6 UNK         0.0408 
     41 CB        -77.7939   27.0209  -77.5348 C.3       6 UNK        -0.1791 
     42 N         -76.5383   26.1349  -75.6123 N.am      6 UNK        -0.4762 
     43 C         -75.5828   26.0459  -74.6752 C.2       6 UNK         0.5007 
     44 O         -74.5367   26.6918  -74.6990 O.2       6 UNK        -0.5032 
     45 CA        -75.8151   25.0330  -73.5429 C.3       5 UNK         0.0783 
     46 C46       -76.8456   25.5920  -72.5393 C.3       11 UNK        -0.0857 
     47 S47       -76.9652   24.6104  -71.0053 S.3       11 UNK        -0.2512 
     48 C48       -76.6218   25.8593  -69.7135 C.3       11 UNK         0.0225 
     49 N         -76.1902   23.7235  -74.0826 N.am      5 UNK        -0.4615 
     50 C         -75.3742   22.9618  -74.8252 C.2       4 UNK         0.5053 
     51 O         -74.2143   23.2683  -75.0961 O.2       4 UNK        -0.5105 
     52 CA        -75.9481   21.6572  -75.3990 C.3       4 UNK         0.0263 
     53 CB        -75.7570   20.5039  -74.4016 C.3       4 UNK        -0.1981 
     54 N         -77.3592   21.7466  -75.7780 N.am      4 UNK        -0.4224 
     55 C         -77.8745   22.5930  -76.6812 C.2       3 UNK         0.4895 
     56 O         -77.2069   23.4227  -77.3027 O.2       3 UNK        -0.5091 
     57 CA        -79.3928   22.5030  -76.9386 C.3       3 UNK         0.0250 
     58 CB        -80.1260   21.4714  -76.0490 C.3       3 UNK        -0.1996 
     59 N         -80.0724   23.8005  -76.8449 N.am      3 UNK        -0.4254 
     60 C         -80.0292   24.6667  -75.8225 C.2       2 UNK         0.5004 
     61 O         -79.2962   24.5502  -74.8358 O.2       2 UNK        -0.5226 
     62 CA        -80.9939   25.8547  -75.9168 C.3       2 UNK         0.0269 
     63 CB        -82.4553   25.3924  -75.7479 C.3       2 UNK        -0.1926 
     64 N         -80.6690   26.8309  -74.8800 N.am      2 UNK        -0.4687 
     65 C         -80.9891   28.1278  -74.9207 C.2       1 UNK         0.5165 
     66 O         -81.5930   28.6487  -75.8633 O.2       1 UNK        -0.5079 
     67 H67       -78.3129   32.6617  -74.5753 H         1 UNK         0.0900 
     68 H68       -80.0297   32.7230  -74.9797 H         1 UNK         0.0900 
     69 H69       -78.8515   32.2946  -76.2184 H         1 UNK         0.0900 
     70 H70       -80.9747   31.0480  -73.8558 H         1 UNK         0.2959 
     71 H71       -79.7168   28.5522  -73.2320 H         1 UNK         0.1079 
     72 H72       -82.7294   29.1327  -73.1237 H         1 UNK         0.0837 
     73 H73       -81.6482   29.8481  -71.9752 H         1 UNK         0.0837 
     74 H74       -81.4435   27.3779  -69.2512 H         1 UNK         0.0685 
     75 H75       -81.5989   29.0337  -69.7688 H         1 UNK         0.0685 
     76 H76       -79.3367   26.1011  -69.6223 H         1 UNK         0.1434 
     77 H77       -75.7691   28.3928  -70.1951 H         1 UNK         0.1329 
     78 H78       -79.6099   30.2669  -70.5938 H         1 UNK         0.1335 
     79 H79       -76.9685   31.4581  -69.9157 H         1 UNK         0.0680 
     80 H80       -77.6070   31.3466  -71.5385 H         1 UNK         0.0680 
     81 H81       -75.4340   28.6838  -72.6637 H         1 UNK         0.1032 
     82 H82       -76.5405   29.8384  -73.3248 H         1 UNK         0.1032 
     83 H83       -74.6933   29.2055  -74.8490 H         1 UNK         0.0461 
     84 H84       -76.0303   32.3212  -76.0431 H         1 UNK         0.3453 
     85 H85       -76.5981   30.7542  -75.5137 H         1 UNK         0.3453 
     86 H86       -72.9924   30.0837  -72.6742 H         1 UNK         0.2984 
     87 H87       -73.0888   29.4511  -76.2539 H         1 UNK         0.0554 
     88 H88       -71.2471   30.9478  -76.7348 H         1 UNK         0.0847 
     89 H89       -71.1498   29.5317  -77.7704 H         1 UNK         0.0847 
     90 H90       -70.0586   29.7052  -76.3968 H         1 UNK         0.0847 
     91 H91       -72.9755   27.2508  -76.0081 H         1 UNK         0.3141 
     92 H92       -70.4295   24.8958  -76.3415 H         1 UNK         0.0743 
     93 H93       -70.5534   25.0268  -73.8476 H         1 UNK         0.0784 
     94 H94       -72.3007   25.2049  -73.9334 H         1 UNK         0.0784 
     95 H95       -71.5347   23.7097  -74.4687 H         1 UNK         0.0784 
     96 H96       -73.2754   24.6480  -76.1384 H         1 UNK         0.3213 
     97 H97       -73.9340   25.2227  -79.6311 H         1 UNK         0.0855 
     98 H98       -74.0710   22.7383  -77.8405 H         1 UNK         0.0814 
     99 H99       -73.2901   22.8350  -79.4111 H         1 UNK         0.0814 
    100 H100      -75.0347   23.0090  -79.2912 H         1 UNK         0.0814 
    101 H101      -75.7039   24.6531  -77.4755 H         1 UNK         0.3105 
    102 H102      -76.2649   28.0227  -76.4289 H         1 UNK         0.0547 
    103 H103      -77.7385   27.6549  -78.4207 H         1 UNK         0.0837 
    104 H104      -78.0847   26.0233  -77.8652 H         1 UNK         0.0837 
    105 H105      -78.5877   27.4224  -76.9059 H         1 UNK         0.0837 
    106 H106      -77.3498   25.5335  -75.5338 H         1 UNK         0.3020 
    107 H107      -74.8619   24.9164  -73.0216 H         1 UNK         0.1245 
    108 H108      -77.8398   25.6482  -72.9836 H         1 UNK         0.0781 
    109 H109      -76.5794   26.6176  -72.2886 H         1 UNK         0.0781 
    110 H110      -76.8223   25.4239  -68.7336 H         1 UNK         0.0836 
    111 H111      -75.5573   26.0980  -69.7317 H         1 UNK         0.0836 
    112 H112      -77.1460   23.4300  -73.9352 H         1 UNK         0.3022 
    113 H113      -75.3839   21.4209  -76.3029 H         1 UNK         0.0747 
    114 H114      -74.7075   20.4015  -74.1212 H         1 UNK         0.0793 
    115 H115      -76.0695   19.5514  -74.8300 H         1 UNK         0.0793 
    116 H116      -76.3250   20.6639  -73.4841 H         1 UNK         0.0793 
    117 H117      -77.9915   21.1115  -75.3130 H         1 UNK         0.3047 
    118 H118      -79.4962   22.1769  -77.9746 H         1 UNK         0.0822 
    119 H119      -81.1848   21.4218  -76.3043 H         1 UNK         0.0807 
    120 H120      -80.0595   21.7230  -74.9894 H         1 UNK         0.0807 
    121 H121      -79.7259   20.4658  -76.1855 H         1 UNK         0.0807 
    122 H122      -80.6751   24.0208  -77.6254 H         1 UNK         0.2946 
    123 H123      -80.8667   26.3161  -76.8989 H         1 UNK         0.1144 
    124 H124      -82.7350   24.6633  -76.5091 H         1 UNK         0.0793 
    125 H125      -83.1508   26.2271  -75.8369 H         1 UNK         0.0793 
    126 H126      -82.6172   24.9273  -74.7745 H         1 UNK         0.0793 
    127 H127      -80.1545   26.4507  -74.0949 H         1 UNK         0.2896 
@<TRIPOS>BOND
     1    1    2 1    
     2    1   67 1    
     3    1   68 1    
     4    1   69 1    
     5    2    3 2    
     6    2    4 am   BACKBONE|DICT|INTERRES
     7    4    5 1    
     8    4   70 1    
     9    5    6 1    
    10    5   65 1    
    11    5   71 1    
    12    6    7 1    
    13    6   72 1    
    14    6   73 1    
    15    7    8 1    
    16    8    9 1    
    17    8   74 1    
    18    8   75 1    
    19    9   10 ar   
    20    9   14 ar   
    21   10   11 ar   
    22   10   76 1    
    23   11   12 ar   
    24   11   48 1    
    25   12   13 ar   
    26   12   77 1    
    27   13   14 ar   
    28   13   15 1    
    29   14   78 1    
    30   15   16 1    
    31   15   79 1    
    32   15   80 1    
    33   16   17 1    
    34   17   18 1    
    35   17   81 1    
    36   17   82 1    
    37   18   19 1    
    38   18   22 1    
    39   18   83 1    
    40   19   20 am   BACKBONE|DICT|INTERRES
    41   19   21 2    
    42   20   84 1    
    43   20   85 1    
    44   22   23 am   BACKBONE|DICT|INTERRES
    45   22   86 1    
    46   23   24 2    
    47   23   25 1    
    48   25   26 1    
    49   25   27 1    
    50   25   87 1    
    51   26   88 1    
    52   26   89 1    
    53   26   90 1    
    54   27   28 am   BACKBONE|DICT|INTERRES
    55   27   91 1    
    56   28   29 2    
    57   28   30 1    
    58   30   31 1    
    59   30   32 1    
    60   30   92 1    
    61   31   93 1    
    62   31   94 1    
    63   31   95 1    
    64   32   33 am   BACKBONE|DICT|INTERRES
    65   32   96 1    
    66   33   34 2    
    67   33   35 1    
    68   35   36 1    
    69   35   37 1    
    70   35   97 1    
    71   36   98 1    
    72   36   99 1    
    73   36  100 1    
    74   37   38 am   BACKBONE|DICT|INTERRES
    75   37  101 1    
    76   38   39 2    
    77   38   40 1    
    78   40   41 1    
    79   40   42 1    
    80   40  102 1    
    81   41  103 1    
    82   41  104 1    
    83   41  105 1    
    84   42   43 am   BACKBONE|DICT|INTERRES
    85   42  106 1    
    86   43   44 2    
    87   43   45 1    
    88   45   46 1    
    89   45   49 1    
    90   45  107 1    
    91   46   47 1    
    92   46  108 1    
    93   46  109 1    
    94   47   48 1    
    95   48  110 1    
    96   48  111 1    
    97   49   50 am   BACKBONE|DICT|INTERRES
    98   49  112 1    
    99   50   51 2    
   100   50   52 1    
   101   52   53 1    
   102   52   54 1    
   103   52  113 1    
   104   53  114 1    
   105   53  115 1    
   106   53  116 1    
   107   54   55 am   BACKBONE|DICT|INTERRES
   108   54  117 1    
   109   55   56 2    
   110   55   57 1    
   111   57   58 1    
   112   57   59 1    
   113   57  118 1    
   114   58  119 1    
   115   58  120 1    
   116   58  121 1    
   117   59   60 am   BACKBONE|DICT|INTERRES
   118   59  122 1    
   119   60   61 2    
   120   60   62 1    
   121   62   63 1    
   122   62   64 1    
   123   62  123 1    
   124   63  124 1    
   125   63  125 1    
   126   63  126 1    
   127   64   65 am   BACKBONE|DICT|INTERRES
   128   64  127 1    
   129   65   66 2    
@<TRIPOS>SUBSTRUCTURE
     1 UNK         1 GROUP             0       ****    0 ROOT    
