@<TRIPOS>MOLECULE
3R135
127   129    1
SMALL
USER_CHARGES


@<TRIPOS>ATOM
      1 CA        -76.9093   27.9216  -75.1582 C.3       0 UNK        -0.1998 
      2 C         -77.4214   29.3551  -75.2867 C.2       0 UNK         0.4909 
      3 O         -76.8379   30.1365  -76.0333 O.2       0 UNK        -0.5240 
      4 N         -78.4896   29.7602  -74.5856 N.am      1 UNK        -0.4739 
      5 CA        -79.4016   28.9286  -73.7937 C.3       1 UNK         0.0864 
      6 C6        -80.3009   29.8219  -72.9002 C.3       11 UNK        -0.0881 
      7 S7        -81.2728   28.8956  -71.6604 S.3       11 UNK        -0.2682 
      8 C8        -80.2429   29.0548  -70.1675 C.3       11 UNK         0.0289 
      9 C9        -78.9420   28.2784  -70.2999 C.ar      11 UNK        -0.0687 
     10 C10       -78.9480   26.8830  -70.2250 C.ar      11 UNK        -0.0823 
     11 C11       -77.7616   26.1576  -70.3680 C.ar      11 UNK        -0.0830 
     12 C12       -76.5589   26.8406  -70.5820 C.ar      11 UNK        -0.1021 
     13 C13       -76.5389   28.2387  -70.6395 C.ar      11 UNK        -0.0753 
     14 C14       -77.7334   28.9510  -70.4978 C.ar      11 UNK        -0.0933 
     15 C15       -75.2302   28.9907  -70.8308 C.3       11 UNK         0.0166 
     16 S16       -75.1218   29.7061  -72.4966 S.3       11 UNK        -0.2615 
     17 C17       -73.5340   30.5963  -72.3907 C.3       11 UNK        -0.0865 
     18 CA        -73.3515   31.6055  -73.5537 C.3       10 UNK         0.0862 
     19 C         -72.0725   32.4596  -73.3468 C.2       10 UNK         0.5551 
     20 N         -72.2043   33.6360  -72.7490 N.am      10 UNK        -0.7319 
     21 O         -70.9616   32.0491  -73.6759 O.2       10 UNK        -0.5018 
     22 N         -73.3642   30.9379  -74.8635 N.am      10 UNK        -0.4509 
     23 C         -73.5847   31.5614  -76.0297 C.2       10 UNK         0.4899 
     24 O         -73.8057   32.7711  -76.1173 O.2       10 UNK        -0.4839 
     25 CA        -73.5964   30.6972  -77.3108 C.3       9 UNK         0.0222 
     26 CB        -73.3054   31.5123  -78.5904 C.3       9 UNK        -0.1966 
     27 N         -72.7428   29.5066  -77.2316 N.am      9 UNK        -0.4218 
     28 C         -71.4079   29.4681  -77.1085 C.2       9 UNK         0.5020 
     29 O         -70.6848   30.4658  -77.1329 O.2       9 UNK        -0.5274 
     30 CA        -70.7793   28.0687  -76.9284 C.3       8 UNK         0.0270 
     31 CB        -69.3917   28.1327  -76.2551 C.3       8 UNK        -0.1976 
     32 N         -71.6347   27.1014  -76.2213 N.am      8 UNK        -0.4313 
     33 C         -72.1843   27.2326  -75.0059 C.2       8 UNK         0.5041 
     34 O         -72.1489   28.2734  -74.3506 O.2       8 UNK        -0.5577 
     35 CA        -72.9085   25.9956  -74.4430 C.3       7 UNK         0.0284 
     36 CB        -73.3416   26.1783  -72.9759 C.3       7 UNK        -0.1958 
     37 N         -74.0839   25.6105  -75.2246 N.am      7 UNK        -0.4454 
     38 C         -74.0805   24.9932  -76.4133 C.2       7 UNK         0.5089 
     39 O         -73.0578   24.7966  -77.0734 O.2       7 UNK        -0.5125 
     40 CA        -75.4511   24.4926  -76.9234 C.3       6 UNK         0.0408 
     41 CB        -75.3142   23.4012  -78.0038 C.3       6 UNK        -0.1791 
     42 N         -76.3480   24.0364  -75.8484 N.am      6 UNK        -0.4762 
     43 C         -76.0776   23.1189  -74.9015 C.2       6 UNK         0.5007 
     44 O         -75.0233   22.4879  -74.8225 O.2       6 UNK        -0.5032 
     45 CA        -77.1802   22.8775  -73.8609 C.3       5 UNK         0.0783 
     46 C46       -77.4316   24.1544  -73.0173 C.3       11 UNK        -0.0857 
     47 S47       -78.6325   23.8694  -71.6787 S.3       11 UNK        -0.2512 
     48 C48       -77.7865   24.6384  -70.2611 C.3       11 UNK         0.0225 
     49 N         -78.3786   22.3953  -74.5475 N.am      5 UNK        -0.4615 
     50 C         -78.5976   21.1145  -74.8779 C.2       4 UNK         0.5053 
     51 O         -77.8519   20.1891  -74.5562 O.2       4 UNK        -0.5105 
     52 CA        -79.8604   20.7987  -75.7022 C.3       4 UNK         0.0263 
     53 CB        -80.9989   20.3373  -74.7779 C.3       4 UNK        -0.1981 
     54 N         -80.3230   21.9353  -76.4995 N.am      4 UNK        -0.4224 
     55 C         -79.6984   22.4220  -77.5822 C.2       3 UNK         0.4895 
     56 O         -78.7293   21.8824  -78.1151 O.2       3 UNK        -0.5091 
     57 CA        -80.2269   23.7559  -78.1453 C.3       3 UNK         0.0250 
     58 CB        -81.1705   23.5049  -79.3323 C.3       3 UNK        -0.1996 
     59 N         -80.9144   24.5785  -77.1405 N.am      3 UNK        -0.4254 
     60 C         -80.3178   25.1129  -76.0663 C.2       2 UNK         0.5004 
     61 O         -79.1103   25.0068  -75.8321 O.2       2 UNK        -0.5226 
     62 CA        -81.2395   25.7831  -75.0367 C.3       2 UNK         0.0269 
     63 CB        -81.8010   24.7306  -74.0661 C.3       2 UNK        -0.1926 
     64 N         -80.5229   26.7965  -74.2642 N.am      2 UNK        -0.4687 
     65 C         -80.2320   28.0183  -74.7243 C.2       1 UNK         0.5165 
     66 O         -80.6011   28.4378  -75.8248 O.2       1 UNK        -0.5079 
     67 H67       -76.8755   27.5964  -74.1190 H         1 UNK         0.0900 
     68 H68       -75.8953   27.8572  -75.5511 H         1 UNK         0.0900 
     69 H69       -77.5347   27.2357  -75.7284 H         1 UNK         0.0900 
     70 H70       -78.7918   30.7150  -74.7113 H         1 UNK         0.2959 
     71 H71       -78.7979   28.2973  -73.1402 H         1 UNK         0.1079 
     72 H72       -79.6884   30.5569  -72.3753 H         1 UNK         0.0837 
     73 H73       -80.9935   30.4023  -73.5132 H         1 UNK         0.0837 
     74 H74       -80.0526   30.1099  -69.9642 H         1 UNK         0.0685 
     75 H75       -80.8025   28.6754  -69.3114 H         1 UNK         0.0685 
     76 H76       -79.8808   26.3592  -70.0645 H         1 UNK         0.1434 
     77 H77       -75.6363   26.2865  -70.6871 H         1 UNK         0.1329 
     78 H78       -77.7187   30.0312  -70.5504 H         1 UNK         0.1335 
     79 H79       -75.1590   29.7860  -70.0873 H         1 UNK         0.0680 
     80 H80       -74.3762   28.3319  -70.6660 H         1 UNK         0.0680 
     81 H81       -72.7190   29.8708  -72.3723 H         1 UNK         0.1032 
     82 H82       -73.4992   31.1184  -71.4325 H         1 UNK         0.1032 
     83 H83       -74.2091   32.2817  -73.5309 H         1 UNK         0.0461 
     84 H84       -73.1095   33.9789  -72.4669 H         1 UNK         0.3453 
     85 H85       -71.3837   34.1994  -72.5889 H         1 UNK         0.3453 
     86 H86       -73.1039   29.9564  -74.8536 H         1 UNK         0.2984 
     87 H87       -74.6135   30.3174  -77.4029 H         1 UNK         0.0554 
     88 H88       -74.0540   32.2923  -78.7345 H         1 UNK         0.0847 
     89 H89       -73.3247   30.8807  -79.4783 H         1 UNK         0.0847 
     90 H90       -72.3329   32.0033  -78.5472 H         1 UNK         0.0847 
     91 H91       -73.2310   28.6235  -77.1901 H         1 UNK         0.3141 
     92 H92       -70.6400   27.6720  -77.9351 H         1 UNK         0.0743 
     93 H93       -68.9499   27.1409  -76.1594 H         1 UNK         0.0784 
     94 H94       -69.4504   28.5721  -75.2583 H         1 UNK         0.0784 
     95 H95       -68.6973   28.7388  -76.8383 H         1 UNK         0.0784 
     96 H96       -71.8152   26.2233  -76.7043 H         1 UNK         0.3213 
     97 H97       -72.1931   25.1705  -74.4725 H         1 UNK         0.0855 
     98 H98       -74.1049   26.9496  -72.8768 H         1 UNK         0.0814 
     99 H99       -72.4977   26.4727  -72.3504 H         1 UNK         0.0814 
    100 H100      -73.7425   25.2533  -72.5614 H         1 UNK         0.0814 
    101 H101      -74.9765   25.7343  -74.7730 H         1 UNK         0.3105 
    102 H102      -75.9379   25.3542  -77.3825 H         1 UNK         0.0547 
    103 H103      -74.7433   23.7630  -78.8597 H         1 UNK         0.0837 
    104 H104      -74.8036   22.5169  -77.6214 H         1 UNK         0.0837 
    105 H105      -76.2892   23.0893  -78.3771 H         1 UNK         0.0837 
    106 H106      -77.2732   24.4628  -75.8399 H         1 UNK         0.3020 
    107 H107      -76.8219   22.0988  -73.1828 H         1 UNK         0.1245 
    108 H108      -76.4928   24.5025  -72.5827 H         1 UNK         0.0781 
    109 H109      -77.8015   24.9789  -73.6270 H         1 UNK         0.0781 
    110 H110      -76.7780   24.2318  -70.1701 H         1 UNK         0.0836 
    111 H111      -78.3095   24.3556  -69.3464 H         1 UNK         0.0836 
    112 H112      -79.0026   23.1110  -74.8947 H         1 UNK         0.3022 
    113 H113      -79.6153   19.9803  -76.3827 H         1 UNK         0.0747 
    114 H114      -81.8817   20.0474  -75.3483 H         1 UNK         0.0793 
    115 H115      -80.6960   19.4694  -74.1904 H         1 UNK         0.0793 
    116 H116      -81.2923   21.1189  -74.0756 H         1 UNK         0.0793 
    117 H117      -81.1343   22.4281  -76.1580 H         1 UNK         0.3047 
    118 H118      -79.3632   24.3198  -78.5051 H         1 UNK         0.0822 
    119 H119      -81.4873   24.4409  -79.7929 H         1 UNK         0.0807 
    120 H120      -82.0647   22.9578  -79.0308 H         1 UNK         0.0807 
    121 H121      -80.6749   22.9173  -80.1066 H         1 UNK         0.0807 
    122 H122      -81.9097   24.7027  -77.2631 H         1 UNK         0.2946 
    123 H123      -82.0704   26.2609  -75.5617 H         1 UNK         0.1144 
    124 H124      -82.4437   25.1892  -73.3142 H         1 UNK         0.0793 
    125 H125      -81.0073   24.1954  -73.5436 H         1 UNK         0.0793 
    126 H126      -82.4035   23.9891  -74.5920 H         1 UNK         0.0793 
    127 H127      -80.1866   26.5165  -73.3540 H         1 UNK         0.2896 
@<TRIPOS>BOND
     1    1    2 1    
     2    1   67 1    
     3    1   68 1    
     4    1   69 1    
     5    2    3 2    
     6    2    4 am   BACKBONE|DICT|INTERRES
     7    4    5 1    
     8    4   70 1    
     9    5    6 1    
    10    5   65 1    
    11    5   71 1    
    12    6    7 1    
    13    6   72 1    
    14    6   73 1    
    15    7    8 1    
    16    8    9 1    
    17    8   74 1    
    18    8   75 1    
    19    9   10 ar   
    20    9   14 ar   
    21   10   11 ar   
    22   10   76 1    
    23   11   12 ar   
    24   11   48 1    
    25   12   13 ar   
    26   12   77 1    
    27   13   14 ar   
    28   13   15 1    
    29   14   78 1    
    30   15   16 1    
    31   15   79 1    
    32   15   80 1    
    33   16   17 1    
    34   17   18 1    
    35   17   81 1    
    36   17   82 1    
    37   18   19 1    
    38   18   22 1    
    39   18   83 1    
    40   19   20 am   BACKBONE|DICT|INTERRES
    41   19   21 2    
    42   20   84 1    
    43   20   85 1    
    44   22   23 am   BACKBONE|DICT|INTERRES
    45   22   86 1    
    46   23   24 2    
    47   23   25 1    
    48   25   26 1    
    49   25   27 1    
    50   25   87 1    
    51   26   88 1    
    52   26   89 1    
    53   26   90 1    
    54   27   28 am   BACKBONE|DICT|INTERRES
    55   27   91 1    
    56   28   29 2    
    57   28   30 1    
    58   30   31 1    
    59   30   32 1    
    60   30   92 1    
    61   31   93 1    
    62   31   94 1    
    63   31   95 1    
    64   32   33 am   BACKBONE|DICT|INTERRES
    65   32   96 1    
    66   33   34 2    
    67   33   35 1    
    68   35   36 1    
    69   35   37 1    
    70   35   97 1    
    71   36   98 1    
    72   36   99 1    
    73   36  100 1    
    74   37   38 am   BACKBONE|DICT|INTERRES
    75   37  101 1    
    76   38   39 2    
    77   38   40 1    
    78   40   41 1    
    79   40   42 1    
    80   40  102 1    
    81   41  103 1    
    82   41  104 1    
    83   41  105 1    
    84   42   43 am   BACKBONE|DICT|INTERRES
    85   42  106 1    
    86   43   44 2    
    87   43   45 1    
    88   45   46 1    
    89   45   49 1    
    90   45  107 1    
    91   46   47 1    
    92   46  108 1    
    93   46  109 1    
    94   47   48 1    
    95   48  110 1    
    96   48  111 1    
    97   49   50 am   BACKBONE|DICT|INTERRES
    98   49  112 1    
    99   50   51 2    
   100   50   52 1    
   101   52   53 1    
   102   52   54 1    
   103   52  113 1    
   104   53  114 1    
   105   53  115 1    
   106   53  116 1    
   107   54   55 am   BACKBONE|DICT|INTERRES
   108   54  117 1    
   109   55   56 2    
   110   55   57 1    
   111   57   58 1    
   112   57   59 1    
   113   57  118 1    
   114   58  119 1    
   115   58  120 1    
   116   58  121 1    
   117   59   60 am   BACKBONE|DICT|INTERRES
   118   59  122 1    
   119   60   61 2    
   120   60   62 1    
   121   62   63 1    
   122   62   64 1    
   123   62  123 1    
   124   63  124 1    
   125   63  125 1    
   126   63  126 1    
   127   64   65 am   BACKBONE|DICT|INTERRES
   128   64  127 1    
   129   65   66 2    
@<TRIPOS>SUBSTRUCTURE
     1 UNK         1 GROUP             0       ****    0 ROOT    
