@<TRIPOS>MOLECULE
3R135
127   129    1
SMALL
USER_CHARGES


@<TRIPOS>ATOM
      1 CA        -84.8883   30.2699  -76.4111 C.3       0 UNK        -0.1998 
      2 C         -83.8465   29.5918  -75.5335 C.2       0 UNK         0.4909 
      3 O         -84.1869   29.0922  -74.4604 O.2       0 UNK        -0.5240 
      4 N         -82.5833   29.5788  -75.9822 N.am      1 UNK        -0.4739 
      5 CA        -81.4353   28.9393  -75.3260 C.3       1 UNK         0.0864 
      6 C6        -81.1047   29.5762  -73.9443 C.3       11 UNK        -0.0881 
      7 S7        -79.3446   29.4150  -73.4897 S.3       11 UNK        -0.2682 
      8 C8        -79.4838   29.0684  -71.7115 C.3       11 UNK         0.0289 
      9 C9        -78.1123   28.9336  -71.0701 C.ar      11 UNK        -0.0687 
     10 C10       -77.5727   27.6702  -70.8118 C.ar      11 UNK        -0.0823 
     11 C11       -76.3195   27.5441  -70.2041 C.ar      11 UNK        -0.0830 
     12 C12       -75.6084   28.6962  -69.8505 C.ar      11 UNK        -0.1021 
     13 C13       -76.1407   29.9659  -70.0990 C.ar      11 UNK        -0.0753 
     14 C14       -77.3916   30.0770  -70.7131 C.ar      11 UNK        -0.0933 
     15 C15       -75.3841   31.2170  -69.6708 C.3       11 UNK         0.0166 
     16 S16       -73.8951   31.5189  -70.6746 S.3       11 UNK        -0.2615 
     17 C17       -74.6024   31.8476  -72.3281 C.3       11 UNK        -0.0865 
     18 CA        -74.4891   30.6236  -73.2762 C.3       10 UNK         0.0862 
     19 C         -75.1818   30.8819  -74.6478 C.2       10 UNK         0.5551 
     20 N         -74.5530   30.5862  -75.7795 N.am      10 UNK        -0.7319 
     21 O         -76.3099   31.3647  -74.6890 O.2       10 UNK        -0.5018 
     22 N         -73.0960   30.1548  -73.3895 N.am      10 UNK        -0.4509 
     23 C         -72.7443   28.8758  -73.5416 C.2       10 UNK         0.4899 
     24 O         -73.5460   27.9456  -73.5731 O.2       10 UNK        -0.4839 
     25 CA        -71.2364   28.5887  -73.6335 C.3       9 UNK         0.0222 
     26 CB        -70.6662   28.2926  -72.2366 C.3       9 UNK        -0.1966 
     27 N         -70.9486   27.4578  -74.5194 N.am      9 UNK        -0.4218 
     28 C         -71.1144   27.4624  -75.8491 C.2       9 UNK         0.5020 
     29 O         -71.4715   28.4571  -76.4841 O.2       9 UNK        -0.5274 
     30 CA        -70.8219   26.1566  -76.6102 C.3       8 UNK         0.0270 
     31 CB        -70.2100   25.0356  -75.7437 C.3       8 UNK        -0.1976 
     32 N         -72.0775   25.6819  -77.1802 N.am      8 UNK        -0.4313 
     33 C         -72.3539   25.5414  -78.4832 C.2       8 UNK         0.5041 
     34 O         -71.5247   25.6973  -79.3814 O.2       8 UNK        -0.5577 
     35 CA        -73.8033   25.1650  -78.8619 C.3       7 UNK         0.0284 
     36 CB        -73.9126   23.6556  -79.1312 C.3       7 UNK        -0.1958 
     37 N         -74.7877   25.5436  -77.8434 N.am      7 UNK        -0.4454 
     38 C         -75.0561   26.8047  -77.4779 C.2       7 UNK         0.5089 
     39 O         -74.6620   27.7885  -78.1047 O.2       7 UNK        -0.5125 
     40 CA        -75.8660   27.0226  -76.1869 C.3       6 UNK         0.0408 
     41 CB        -77.2644   27.5762  -76.5029 C.3       6 UNK        -0.1791 
     42 N         -75.9997   25.8601  -75.3011 N.am      6 UNK        -0.4762 
     43 C         -75.0084   25.1816  -74.6995 C.2       6 UNK         0.5007 
     44 O         -73.8177   25.2909  -74.9912 O.2       6 UNK        -0.5032 
     45 CA        -75.4353   24.1657  -73.6261 C.3       5 UNK         0.0783 
     46 C46       -76.0335   24.8573  -72.3739 C.3       11 UNK        -0.0857 
     47 S47       -74.7456   25.5066  -71.2589 S.3       11 UNK        -0.2512 
     48 C48       -75.7500   26.1665  -69.8913 C.3       11 UNK         0.0225 
     49 N         -76.3800   23.2239  -74.2209 N.am      5 UNK        -0.4615 
     50 C         -76.0468   22.0411  -74.7521 C.2       4 UNK         0.5053 
     51 O         -74.9174   21.5550  -74.6917 O.2       4 UNK        -0.5105 
     52 CA        -77.1564   21.2645  -75.4868 C.3       4 UNK         0.0263 
     53 CB        -77.8066   20.2386  -74.5446 C.3       4 UNK        -0.1981 
     54 N         -78.1987   22.1233  -76.0572 N.am      4 UNK        -0.4224 
     55 C         -77.9990   23.0316  -77.0230 C.2       3 UNK         0.4895 
     56 O         -76.9163   23.2177  -77.5784 O.2       3 UNK        -0.5091 
     57 CA        -79.1996   23.9135  -77.4073 C.3       3 UNK         0.0250 
     58 CB        -80.0004   23.2573  -78.5432 C.3       3 UNK        -0.1996 
     59 N         -80.1114   24.2585  -76.3060 N.am      3 UNK        -0.4254 
     60 C         -79.7631   24.8132  -75.1359 C.2       2 UNK         0.5004 
     61 O         -78.5996   25.0043  -74.7795 O.2       2 UNK        -0.5226 
     62 CA        -80.9008   25.2760  -74.2177 C.3       2 UNK         0.0269 
     63 CB        -80.6363   24.8778  -72.7547 C.3       2 UNK        -0.1926 
     64 N         -81.0095   26.7304  -74.3052 N.am      2 UNK        -0.4687 
     65 C         -81.5731   27.3963  -75.3210 C.2       1 UNK         0.5165 
     66 O         -82.1557   26.8326  -76.2518 O.2       1 UNK        -0.5079 
     67 H67       -85.6603   29.5557  -76.6960 H         1 UNK         0.0900 
     68 H68       -85.3629   31.0863  -75.8673 H         1 UNK         0.0900 
     69 H69       -84.4517   30.6785  -77.3223 H         1 UNK         0.0900 
     70 H70       -82.3849   29.9828  -76.8873 H         1 UNK         0.2959 
     71 H71       -80.5932   29.1421  -75.9901 H         1 UNK         0.1079 
     72 H72       -81.7495   29.1733  -73.1607 H         1 UNK         0.0837 
     73 H73       -81.3168   30.6463  -73.9719 H         1 UNK         0.0837 
     74 H74       -80.0375   29.8750  -71.2283 H         1 UNK         0.0685 
     75 H75       -80.0664   28.1583  -71.5596 H         1 UNK         0.0685 
     76 H76       -78.1324   26.7840  -71.0760 H         1 UNK         0.1434 
     77 H77       -74.6411   28.6073  -69.3748 H         1 UNK         0.1329 
     78 H78       -77.8123   31.0540  -70.9086 H         1 UNK         0.1335 
     79 H79       -76.0285   32.0966  -69.7122 H         1 UNK         0.0680 
     80 H80       -75.0849   31.1102  -68.6272 H         1 UNK         0.0680 
     81 H81       -75.6446   32.1519  -72.2152 H         1 UNK         0.1032 
     82 H82       -74.0850   32.7074  -72.7570 H         1 UNK         0.1032 
     83 H83       -75.0765   29.8253  -72.8183 H         1 UNK         0.0461 
     84 H84       -73.6368   30.1654  -75.7621 H         1 UNK         0.3453 
     85 H85       -75.0126   30.7549  -76.6597 H         1 UNK         0.3453 
     86 H86       -72.3823   30.8679  -73.3619 H         1 UNK         0.2984 
     87 H87       -70.7326   29.4702  -74.0357 H         1 UNK         0.0554 
     88 H88       -69.5899   28.1229  -72.2718 H         1 UNK         0.0847 
     89 H89       -71.1330   27.4135  -71.7897 H         1 UNK         0.0847 
     90 H90       -70.8394   29.1299  -71.5590 H         1 UNK         0.0847 
     91 H91       -70.7062   26.5852  -74.0742 H         1 UNK         0.3141 
     92 H92       -70.1097   26.4052  -77.3995 H         1 UNK         0.0743 
     93 H93       -70.8869   24.7123  -74.9513 H         1 UNK         0.0784 
     94 H94       -69.9810   24.1600  -76.3516 H         1 UNK         0.0784 
     95 H95       -69.2739   25.3546  -75.2832 H         1 UNK         0.0784 
     96 H96       -72.8318   25.5585  -76.5042 H         1 UNK         0.3213 
     97 H97       -74.0499   25.6987  -79.7821 H         1 UNK         0.0855 
     98 H98       -73.7213   23.0706  -78.2306 H         1 UNK         0.0814 
     99 H99       -73.1924   23.3393  -79.8870 H         1 UNK         0.0814 
    100 H100      -74.9038   23.3897  -79.4989 H         1 UNK         0.0814 
    101 H101      -75.2103   24.7928  -77.3116 H         1 UNK         0.3105 
    102 H102      -75.3319   27.7829  -75.6152 H         1 UNK         0.0547 
    103 H103      -77.1985   28.4945  -77.0878 H         1 UNK         0.0837 
    104 H104      -77.8599   26.8656  -77.0742 H         1 UNK         0.0837 
    105 H105      -77.8103   27.8152  -75.5905 H         1 UNK         0.0837 
    106 H106      -76.9559   25.6220  -75.0398 H         1 UNK         0.3020 
    107 H107      -74.5396   23.6215  -73.3165 H         1 UNK         0.1245 
    108 H108      -76.6203   24.1374  -71.8010 H         1 UNK         0.0781 
    109 H109      -76.7239   25.6565  -72.6479 H         1 UNK         0.0781 
    110 H110      -75.1243   26.2237  -68.9993 H         1 UNK         0.0836 
    111 H111      -76.5517   25.4673  -69.6485 H         1 UNK         0.0836 
    112 H112      -77.3188   23.5801  -74.3684 H         1 UNK         0.3022 
    113 H113      -76.6847   20.7244  -76.3105 H         1 UNK         0.0747 
    114 H114      -78.5346   19.6208  -75.0707 H         1 UNK         0.0793 
    115 H115      -77.0576   19.5658  -74.1242 H         1 UNK         0.0793 
    116 H116      -78.3151   20.7223  -73.7095 H         1 UNK         0.0793 
    117 H117      -79.1236   22.0459  -75.6601 H         1 UNK         0.3047 
    118 H118      -78.7917   24.8512  -77.7870 H         1 UNK         0.0822 
    119 H119      -80.7753   23.9249  -78.9205 H         1 UNK         0.0807 
    120 H120      -80.4807   22.3336  -78.2180 H         1 UNK         0.0807 
    121 H121      -79.3529   23.0091  -79.3857 H         1 UNK         0.0807 
    122 H122      -81.0971   24.1762  -76.5122 H         1 UNK         0.2946 
    123 H123      -81.8399   24.8180  -74.5370 H         1 UNK         0.1144 
    124 H124      -81.4552   25.1891  -72.1060 H         1 UNK         0.0793 
    125 H125      -79.7179   25.3226  -72.3695 H         1 UNK         0.0793 
    126 H126      -80.5390   23.7958  -72.6573 H         1 UNK         0.0793 
    127 H127      -80.4860   27.2656  -73.6263 H         1 UNK         0.2896 
@<TRIPOS>BOND
     1    1    2 1    
     2    1   67 1    
     3    1   68 1    
     4    1   69 1    
     5    2    3 2    
     6    2    4 am   BACKBONE|DICT|INTERRES
     7    4    5 1    
     8    4   70 1    
     9    5    6 1    
    10    5   65 1    
    11    5   71 1    
    12    6    7 1    
    13    6   72 1    
    14    6   73 1    
    15    7    8 1    
    16    8    9 1    
    17    8   74 1    
    18    8   75 1    
    19    9   10 ar   
    20    9   14 ar   
    21   10   11 ar   
    22   10   76 1    
    23   11   12 ar   
    24   11   48 1    
    25   12   13 ar   
    26   12   77 1    
    27   13   14 ar   
    28   13   15 1    
    29   14   78 1    
    30   15   16 1    
    31   15   79 1    
    32   15   80 1    
    33   16   17 1    
    34   17   18 1    
    35   17   81 1    
    36   17   82 1    
    37   18   19 1    
    38   18   22 1    
    39   18   83 1    
    40   19   20 am   BACKBONE|DICT|INTERRES
    41   19   21 2    
    42   20   84 1    
    43   20   85 1    
    44   22   23 am   BACKBONE|DICT|INTERRES
    45   22   86 1    
    46   23   24 2    
    47   23   25 1    
    48   25   26 1    
    49   25   27 1    
    50   25   87 1    
    51   26   88 1    
    52   26   89 1    
    53   26   90 1    
    54   27   28 am   BACKBONE|DICT|INTERRES
    55   27   91 1    
    56   28   29 2    
    57   28   30 1    
    58   30   31 1    
    59   30   32 1    
    60   30   92 1    
    61   31   93 1    
    62   31   94 1    
    63   31   95 1    
    64   32   33 am   BACKBONE|DICT|INTERRES
    65   32   96 1    
    66   33   34 2    
    67   33   35 1    
    68   35   36 1    
    69   35   37 1    
    70   35   97 1    
    71   36   98 1    
    72   36   99 1    
    73   36  100 1    
    74   37   38 am   BACKBONE|DICT|INTERRES
    75   37  101 1    
    76   38   39 2    
    77   38   40 1    
    78   40   41 1    
    79   40   42 1    
    80   40  102 1    
    81   41  103 1    
    82   41  104 1    
    83   41  105 1    
    84   42   43 am   BACKBONE|DICT|INTERRES
    85   42  106 1    
    86   43   44 2    
    87   43   45 1    
    88   45   46 1    
    89   45   49 1    
    90   45  107 1    
    91   46   47 1    
    92   46  108 1    
    93   46  109 1    
    94   47   48 1    
    95   48  110 1    
    96   48  111 1    
    97   49   50 am   BACKBONE|DICT|INTERRES
    98   49  112 1    
    99   50   51 2    
   100   50   52 1    
   101   52   53 1    
   102   52   54 1    
   103   52  113 1    
   104   53  114 1    
   105   53  115 1    
   106   53  116 1    
   107   54   55 am   BACKBONE|DICT|INTERRES
   108   54  117 1    
   109   55   56 2    
   110   55   57 1    
   111   57   58 1    
   112   57   59 1    
   113   57  118 1    
   114   58  119 1    
   115   58  120 1    
   116   58  121 1    
   117   59   60 am   BACKBONE|DICT|INTERRES
   118   59  122 1    
   119   60   61 2    
   120   60   62 1    
   121   62   63 1    
   122   62   64 1    
   123   62  123 1    
   124   63  124 1    
   125   63  125 1    
   126   63  126 1    
   127   64   65 am   BACKBONE|DICT|INTERRES
   128   64  127 1    
   129   65   66 2    
@<TRIPOS>SUBSTRUCTURE
     1 UNK         1 GROUP             0       ****    0 ROOT    
