@<TRIPOS>MOLECULE
3R135
127   129    1
SMALL
USER_CHARGES


@<TRIPOS>ATOM
      1 CA        -85.8621   25.8304  -72.1265 C.3       0 UNK        -0.1998 
      2 C         -84.9519   25.8292  -73.3452 C.2       0 UNK         0.4909 
      3 O         -85.3729   25.4115  -74.4243 O.2       0 UNK        -0.5240 
      4 N         -83.7063   26.2940  -73.1822 N.am      1 UNK        -0.4739 
      5 CA        -82.6816   26.3417  -74.2340 C.3       1 UNK         0.0864 
      6 C6        -81.5478   27.3388  -73.8812 C.3       11 UNK        -0.0881 
      7 S7        -80.7189   26.9752  -72.2938 S.3       11 UNK        -0.2682 
      8 C8        -80.2765   28.6425  -71.7038 C.3       11 UNK         0.0289 
      9 C9        -78.8949   29.0766  -72.1764 C.ar      11 UNK        -0.0687 
     10 C10       -78.7313   30.1797  -73.0241 C.ar      11 UNK        -0.0823 
     11 C11       -77.4489   30.6121  -73.3877 C.ar      11 UNK        -0.0830 
     12 C12       -76.3328   29.9220  -72.9031 C.ar      11 UNK        -0.1021 
     13 C13       -76.4853   28.7957  -72.0934 C.ar      11 UNK        -0.0753 
     14 C14       -77.7671   28.3882  -71.7207 C.ar      11 UNK        -0.0933 
     15 C15       -75.2672   27.9949  -71.6627 C.3       11 UNK         0.0166 
     16 S16       -74.2427   28.8918  -70.4580 S.3       11 UNK        -0.2615 
     17 C17       -72.8637   27.7103  -70.2580 C.3       11 UNK        -0.0865 
     18 CA        -71.5526   28.1787  -70.9445 C.3       10 UNK         0.0862 
     19 C         -70.3708   27.2277  -70.5894 C.2       10 UNK         0.5551 
     20 N         -69.7313   26.5687  -71.5482 N.am      10 UNK        -0.7319 
     21 O         -70.0252   27.0910  -69.4183 O.2       10 UNK        -0.5018 
     22 N         -71.7417   28.4109  -72.3868 N.am      10 UNK        -0.4509 
     23 C         -70.9666   29.1839  -73.1545 C.2       10 UNK         0.4899 
     24 O         -69.9834   29.7977  -72.7369 O.2       10 UNK        -0.4839 
     25 CA        -71.3588   29.2694  -74.6428 C.3       9 UNK         0.0222 
     26 CB        -70.5334   30.3138  -75.4169 C.3       9 UNK        -0.1966 
     27 N         -71.2481   27.9753  -75.3247 N.am      9 UNK        -0.4218 
     28 C         -72.1218   26.9669  -75.2180 C.2       9 UNK         0.5020 
     29 O         -73.1124   26.9984  -74.4876 O.2       9 UNK        -0.5274 
     30 CA        -71.8369   25.7061  -76.0347 C.3       8 UNK         0.0270 
     31 CB        -71.4473   24.5333  -75.1152 C.3       8 UNK        -0.1976 
     32 N         -73.0295   25.3746  -76.8112 N.am      8 UNK        -0.4313 
     33 C         -73.0283   24.6426  -77.9331 C.2       8 UNK         0.5041 
     34 O         -72.0175   24.1281  -78.4145 O.2       8 UNK        -0.5577 
     35 CA        -74.3694   24.4745  -78.6609 C.3       7 UNK         0.0284 
     36 CB        -75.3010   23.5136  -77.9008 C.3       7 UNK        -0.1958 
     37 N         -75.0215   25.7716  -78.8413 N.am      7 UNK        -0.4454 
     38 C         -74.8516   26.5645  -79.9097 C.2       7 UNK         0.5089 
     39 O         -74.1859   26.2482  -80.8964 O.2       7 UNK        -0.5125 
     40 CA        -75.5399   27.9446  -79.8918 C.3       6 UNK         0.0408 
     41 CB        -76.8870   27.8790  -80.6289 C.3       6 UNK        -0.1791 
     42 N         -75.7575   28.4744  -78.5444 N.am      6 UNK        -0.4762 
     43 C         -74.7869   28.8685  -77.7068 C.2       6 UNK         0.5007 
     44 O         -73.5975   28.9234  -78.0193 O.2       6 UNK        -0.5032 
     45 CA        -75.2046   29.2208  -76.2629 C.3       5 UNK         0.0783 
     46 C46       -75.3159   30.7624  -76.0504 C.3       11 UNK        -0.0857 
     47 S47       -77.0243   31.4303  -76.0337 S.3       11 UNK        -0.2512 
     48 C48       -77.2628   31.8433  -74.2698 C.3       11 UNK         0.0225 
     49 N         -76.3956   28.4955  -75.8042 N.am      5 UNK        -0.4615 
     50 C         -76.5829   27.1723  -75.7829 C.2       4 UNK         0.5053 
     51 O         -75.7361   26.3461  -76.1273 O.2       4 UNK        -0.5105 
     52 CA        -78.0222   26.7355  -75.4774 C.3       4 UNK         0.0263 
     53 CB        -78.8686   26.8918  -76.7551 C.3       4 UNK        -0.1981 
     54 N         -78.1466   25.3567  -75.0062 N.am      4 UNK        -0.4224 
     55 C         -77.6234   24.8629  -73.8761 C.2       3 UNK         0.4895 
     56 O         -76.9224   25.5032  -73.0941 O.2       3 UNK        -0.5091 
     57 CA        -78.0265   23.4215  -73.5409 C.3       3 UNK         0.0250 
     58 CB        -77.4140   22.9063  -72.2240 C.3       3 UNK        -0.1996 
     59 N         -79.4847   23.3649  -73.4573 N.am      3 UNK        -0.4254 
     60 C         -80.2587   22.4135  -73.9912 C.2       2 UNK         0.5004 
     61 O         -79.8217   21.4239  -74.5797 O.2       2 UNK        -0.5226 
     62 CA        -81.7824   22.5921  -73.8537 C.3       2 UNK         0.0269 
     63 CB        -82.3186   21.7475  -72.6864 C.3       2 UNK        -0.1926 
     64 N         -82.2119   23.9839  -73.6722 N.am      2 UNK        -0.4687 
     65 C         -82.1298   24.9455  -74.6051 C.2       1 UNK         0.5165 
     66 O         -81.6484   24.7627  -75.7236 O.2       1 UNK        -0.5079 
     67 H67       -86.7462   26.4374  -72.3193 H         1 UNK         0.0900 
     68 H68       -85.3623   26.2305  -71.2445 H         1 UNK         0.0900 
     69 H69       -86.1879   24.8155  -71.9006 H         1 UNK         0.0900 
     70 H70       -83.4084   26.6273  -72.2755 H         1 UNK         0.2959 
     71 H71       -83.1655   26.7160  -75.1394 H         1 UNK         0.1079 
     72 H72       -81.9687   28.3442  -73.8406 H         1 UNK         0.0837 
     73 H73       -80.7991   27.3748  -74.6701 H         1 UNK         0.0837 
     74 H74       -80.2776   28.6295  -70.6130 H         1 UNK         0.0685 
     75 H75       -81.0401   29.3654  -71.9937 H         1 UNK         0.0685 
     76 H76       -79.6000   30.7169  -73.3799 H         1 UNK         0.1434 
     77 H77       -75.3352   30.2449  -73.1599 H         1 UNK         0.1329 
     78 H78       -77.8911   27.5211  -71.0863 H         1 UNK         0.1335 
     79 H79       -75.5699   27.0393  -71.2317 H         1 UNK         0.0680 
     80 H80       -74.6746   27.7582  -72.5458 H         1 UNK         0.0680 
     81 H81       -73.1577   26.7269  -70.6300 H         1 UNK         0.1032 
     82 H82       -72.7042   27.5850  -69.1851 H         1 UNK         0.1032 
     83 H83       -71.2896   29.1414  -70.5016 H         1 UNK         0.0461 
     84 H84       -69.9996   26.6876  -72.5107 H         1 UNK         0.3453 
     85 H85       -68.9658   25.9601  -71.3047 H         1 UNK         0.3453 
     86 H86       -72.4905   27.8967  -72.8406 H         1 UNK         0.2984 
     87 H87       -72.3998   29.5949  -74.6748 H         1 UNK         0.0554 
     88 H88       -70.6164   31.2984  -74.9546 H         1 UNK         0.0847 
     89 H89       -70.8834   30.4117  -76.4450 H         1 UNK         0.0847 
     90 H90       -69.4742   30.0552  -75.4449 H         1 UNK         0.0847 
     91 H91       -70.4415   27.8544  -75.9210 H         1 UNK         0.3141 
     92 H92       -71.0121   25.9102  -76.7210 H         1 UNK         0.0743 
     93 H93       -70.5729   24.7815  -74.5125 H         1 UNK         0.0784 
     94 H94       -72.2559   24.2761  -74.4295 H         1 UNK         0.0784 
     95 H95       -71.2005   23.6407  -75.6902 H         1 UNK         0.0784 
     96 H96       -73.9036   25.7679  -76.4631 H         1 UNK         0.3213 
     97 H97       -74.1676   24.0301  -79.6383 H         1 UNK         0.0855 
     98 H98       -75.5283   23.8649  -76.8943 H         1 UNK         0.0814 
     99 H99       -74.8423   22.5289  -77.8025 H         1 UNK         0.0814 
    100 H100      -76.2454   23.3793  -78.4283 H         1 UNK         0.0814 
    101 H101      -75.5218   26.1314  -78.0346 H         1 UNK         0.3105 
    102 H102      -74.8923   28.6423  -80.4270 H         1 UNK         0.0547 
    103 H103      -76.7552   27.5162  -81.6493 H         1 UNK         0.0837 
    104 H104      -77.5880   27.2063  -80.1332 H         1 UNK         0.0837 
    105 H105      -77.3527   28.8623  -80.6955 H         1 UNK         0.0837 
    106 H106      -76.7082   28.4863  -78.2056 H         1 UNK         0.3020 
    107 H107      -74.3885   28.8662  -75.6362 H         1 UNK         0.1245 
    108 H108      -74.7573   31.3127  -76.8107 H         1 UNK         0.0781 
    109 H109      -74.8196   31.0393  -75.1217 H         1 UNK         0.0781 
    110 H110      -78.1354   32.4927  -74.1837 H         1 UNK         0.0836 
    111 H111      -76.4182   32.4354  -73.9139 H         1 UNK         0.0836 
    112 H112      -77.1541   29.0960  -75.5101 H         1 UNK         0.3022 
    113 H113      -78.4178   27.3849  -74.6937 H         1 UNK         0.0747 
    114 H114      -79.8952   26.5602  -76.6095 H         1 UNK         0.0793 
    115 H115      -78.4555   26.3129  -77.5827 H         1 UNK         0.0793 
    116 H116      -78.9141   27.9335  -77.0753 H         1 UNK         0.0793 
    117 H117      -78.7163   24.7437  -75.5712 H         1 UNK         0.3047 
    118 H118      -77.6653   22.7939  -74.3588 H         1 UNK         0.0822 
    119 H119      -77.6966   21.8705  -72.0353 H         1 UNK         0.0807 
    120 H120      -77.7361   23.5027  -71.3695 H         1 UNK         0.0807 
    121 H121      -76.3245   22.9448  -72.2592 H         1 UNK         0.0807 
    122 H122      -79.9342   24.1566  -73.0163 H         1 UNK         0.2946 
    123 H123      -82.2308   22.2226  -74.7790 H         1 UNK         0.1144 
    124 H124      -82.0432   20.6984  -72.8044 H         1 UNK         0.0793 
    125 H125      -83.4067   21.7901  -72.6321 H         1 UNK         0.0793 
    126 H126      -81.9196   22.0832  -71.7283 H         1 UNK         0.0793 
    127 H127      -82.6216   24.2255  -72.7814 H         1 UNK         0.2896 
@<TRIPOS>BOND
     1    1    2 1    
     2    1   67 1    
     3    1   68 1    
     4    1   69 1    
     5    2    3 2    
     6    2    4 am   BACKBONE|DICT|INTERRES
     7    4    5 1    
     8    4   70 1    
     9    5    6 1    
    10    5   65 1    
    11    5   71 1    
    12    6    7 1    
    13    6   72 1    
    14    6   73 1    
    15    7    8 1    
    16    8    9 1    
    17    8   74 1    
    18    8   75 1    
    19    9   10 ar   
    20    9   14 ar   
    21   10   11 ar   
    22   10   76 1    
    23   11   12 ar   
    24   11   48 1    
    25   12   13 ar   
    26   12   77 1    
    27   13   14 ar   
    28   13   15 1    
    29   14   78 1    
    30   15   16 1    
    31   15   79 1    
    32   15   80 1    
    33   16   17 1    
    34   17   18 1    
    35   17   81 1    
    36   17   82 1    
    37   18   19 1    
    38   18   22 1    
    39   18   83 1    
    40   19   20 am   BACKBONE|DICT|INTERRES
    41   19   21 2    
    42   20   84 1    
    43   20   85 1    
    44   22   23 am   BACKBONE|DICT|INTERRES
    45   22   86 1    
    46   23   24 2    
    47   23   25 1    
    48   25   26 1    
    49   25   27 1    
    50   25   87 1    
    51   26   88 1    
    52   26   89 1    
    53   26   90 1    
    54   27   28 am   BACKBONE|DICT|INTERRES
    55   27   91 1    
    56   28   29 2    
    57   28   30 1    
    58   30   31 1    
    59   30   32 1    
    60   30   92 1    
    61   31   93 1    
    62   31   94 1    
    63   31   95 1    
    64   32   33 am   BACKBONE|DICT|INTERRES
    65   32   96 1    
    66   33   34 2    
    67   33   35 1    
    68   35   36 1    
    69   35   37 1    
    70   35   97 1    
    71   36   98 1    
    72   36   99 1    
    73   36  100 1    
    74   37   38 am   BACKBONE|DICT|INTERRES
    75   37  101 1    
    76   38   39 2    
    77   38   40 1    
    78   40   41 1    
    79   40   42 1    
    80   40  102 1    
    81   41  103 1    
    82   41  104 1    
    83   41  105 1    
    84   42   43 am   BACKBONE|DICT|INTERRES
    85   42  106 1    
    86   43   44 2    
    87   43   45 1    
    88   45   46 1    
    89   45   49 1    
    90   45  107 1    
    91   46   47 1    
    92   46  108 1    
    93   46  109 1    
    94   47   48 1    
    95   48  110 1    
    96   48  111 1    
    97   49   50 am   BACKBONE|DICT|INTERRES
    98   49  112 1    
    99   50   51 2    
   100   50   52 1    
   101   52   53 1    
   102   52   54 1    
   103   52  113 1    
   104   53  114 1    
   105   53  115 1    
   106   53  116 1    
   107   54   55 am   BACKBONE|DICT|INTERRES
   108   54  117 1    
   109   55   56 2    
   110   55   57 1    
   111   57   58 1    
   112   57   59 1    
   113   57  118 1    
   114   58  119 1    
   115   58  120 1    
   116   58  121 1    
   117   59   60 am   BACKBONE|DICT|INTERRES
   118   59  122 1    
   119   60   61 2    
   120   60   62 1    
   121   62   63 1    
   122   62   64 1    
   123   62  123 1    
   124   63  124 1    
   125   63  125 1    
   126   63  126 1    
   127   64   65 am   BACKBONE|DICT|INTERRES
   128   64  127 1    
   129   65   66 2    
@<TRIPOS>SUBSTRUCTURE
     1 UNK         1 GROUP             0       ****    0 ROOT    
