@<TRIPOS>MOLECULE
3R135
127   129    1
SMALL
USER_CHARGES


@<TRIPOS>ATOM
      1 CA        -81.7085   24.2933  -71.2531 C.3       0 UNK        -0.1998 
      2 C         -82.3617   25.3978  -72.0692 C.2       0 UNK         0.4909 
      3 O         -83.5122   25.2562  -72.4841 O.2       0 UNK        -0.5240 
      4 N         -81.6321   26.4951  -72.3074 N.am      1 UNK        -0.4739 
      5 CA        -82.0946   27.6634  -73.0751 C.3       1 UNK         0.0864 
      6 C6        -81.4526   28.9823  -72.5730 C.3       11 UNK        -0.0881 
      7 S7        -81.8097   29.2778  -70.8045 S.3       11 UNK        -0.2682 
      8 C8        -80.4482   30.3913  -70.3080 C.3       11 UNK         0.0289 
      9 C9        -79.0400   29.8256  -70.4952 C.ar      11 UNK        -0.0687 
     10 C10       -78.7741   28.4524  -70.4301 C.ar      11 UNK        -0.0823 
     11 C11       -77.4874   27.9621  -70.6699 C.ar      11 UNK        -0.0830 
     12 C12       -76.4419   28.8601  -70.9037 C.ar      11 UNK        -0.1021 
     13 C13       -76.6831   30.2366  -70.9340 C.ar      11 UNK        -0.0753 
     14 C14       -77.9842   30.7093  -70.7394 C.ar      11 UNK        -0.0933 
     15 C15       -75.5457   31.2197  -71.1726 C.3       11 UNK         0.0166 
     16 S16       -75.1545   31.3814  -72.9432 S.3       11 UNK        -0.2615 
     17 C17       -73.7990   30.1718  -73.1354 C.3       11 UNK        -0.0865 
     18 CA        -72.4199   30.8379  -73.3981 C.3       10 UNK         0.0862 
     19 C         -71.7637   31.3975  -72.0986 C.2       10 UNK         0.5551 
     20 N         -70.6385   30.8604  -71.6409 N.am      10 UNK        -0.7319 
     21 O         -72.2683   32.3464  -71.5047 O.2       10 UNK        -0.5018 
     22 N         -71.5497   29.9291  -74.1606 N.am      10 UNK        -0.4509 
     23 C         -70.5717   30.3127  -74.9916 C.2       10 UNK         0.4899 
     24 O         -70.3042   31.4909  -75.2306 O.2       10 UNK        -0.4839 
     25 CA        -69.7335   29.2071  -75.6691 C.3       9 UNK         0.0222 
     26 CB        -68.2774   29.2574  -75.1746 C.3       9 UNK        -0.1966 
     27 N         -70.2500   27.8448  -75.4822 N.am      9 UNK        -0.4218 
     28 C         -71.3676   27.3586  -76.0391 C.2       9 UNK         0.5020 
     29 O         -72.1065   28.0171  -76.7735 O.2       9 UNK        -0.5274 
     30 CA        -71.7341   25.9150  -75.6465 C.3       8 UNK         0.0270 
     31 CB        -72.3274   25.8856  -74.2263 C.3       8 UNK        -0.1976 
     32 N         -72.6908   25.3007  -76.5692 N.am      8 UNK        -0.4313 
     33 C         -72.4478   24.9956  -77.8514 C.2       8 UNK         0.5041 
     34 O         -71.3418   25.1002  -78.3851 O.2       8 UNK        -0.5577 
     35 CA        -73.6380   24.4820  -78.6814 C.3       7 UNK         0.0284 
     36 CB        -73.7719   22.9565  -78.5485 C.3       7 UNK        -0.1958 
     37 N         -74.9055   25.1153  -78.3093 N.am      7 UNK        -0.4454 
     38 C         -75.2252   26.3949  -78.5522 C.2       7 UNK         0.5089 
     39 O         -74.5204   27.1673  -79.2018 O.2       7 UNK        -0.5125 
     40 CA        -76.5578   26.9004  -77.9730 C.3       6 UNK         0.0408 
     41 CB        -77.7138   26.6513  -78.9554 C.3       6 UNK        -0.1791 
     42 N         -76.8627   26.2775  -76.6829 N.am      6 UNK        -0.4762 
     43 C         -76.3445   26.6746  -75.5102 C.2       6 UNK         0.5007 
     44 O         -75.6119   27.6546  -75.3846 O.2       6 UNK        -0.5032 
     45 CA        -76.6907   25.8348  -74.2638 C.3       5 UNK         0.0783 
     46 C46       -77.8659   26.4791  -73.4940 C.3       11 UNK        -0.0857 
     47 S47       -78.2675   25.6014  -71.9437 S.3       11 UNK        -0.2512 
     48 C48       -77.2312   26.4610  -70.7092 C.3       11 UNK         0.0225 
     49 N         -76.9419   24.4289  -74.5984 N.am      5 UNK        -0.4615 
     50 C         -75.9845   23.5677  -74.9688 C.2       4 UNK         0.5053 
     51 O         -74.7972   23.8732  -75.0657 O.2       4 UNK        -0.5105 
     52 CA        -76.4257   22.1440  -75.3509 C.3       4 UNK         0.0263 
     53 CB        -76.4860   21.2490  -74.1036 C.3       4 UNK        -0.1981 
     54 N         -77.7140   22.1005  -76.0474 N.am      4 UNK        -0.4224 
     55 C         -77.9919   22.7430  -77.1901 C.2       3 UNK         0.4895 
     56 O         -77.1700   23.4191  -77.8084 O.2       3 UNK        -0.5091 
     57 CA        -79.4381   22.6793  -77.7093 C.3       3 UNK         0.0250 
     58 CB        -80.2645   21.5095  -77.1267 C.3       3 UNK        -0.1996 
     59 N         -80.1388   23.9551  -77.5097 N.am      3 UNK        -0.4254 
     60 C         -80.3383   24.5914  -76.3451 C.2       2 UNK         0.5004 
     61 O         -79.8927   24.1999  -75.2607 O.2       2 UNK        -0.5226 
     62 CA        -81.1844   25.8744  -76.3957 C.3       2 UNK         0.0269 
     63 CB        -82.5338   25.6421  -77.1111 C.3       2 UNK        -0.1926 
     64 N         -81.4104   26.3102  -75.0211 N.am      2 UNK        -0.4687 
     65 C         -81.9044   27.4799  -74.5999 C.2       1 UNK         0.5165 
     66 O         -82.2118   28.3960  -75.3639 O.2       1 UNK        -0.5079 
     67 H67       -80.8857   24.6733  -70.6479 H         1 UNK         0.0900 
     68 H68       -82.4351   23.8382  -70.5804 H         1 UNK         0.0900 
     69 H69       -81.3200   23.5185  -71.9138 H         1 UNK         0.0900 
     70 H70       -80.6830   26.5440  -71.9628 H         1 UNK         0.2959 
     71 H71       -83.1730   27.7605  -72.9299 H         1 UNK         0.1079 
     72 H72       -81.8342   29.8380  -73.1335 H         1 UNK         0.0837 
     73 H73       -80.3748   28.9643  -72.7412 H         1 UNK         0.0837 
     74 H74       -80.5535   31.3206  -70.8704 H         1 UNK         0.0685 
     75 H75       -80.5788   30.6497  -69.2566 H         1 UNK         0.0685 
     76 H76       -79.5738   27.7536  -70.2306 H         1 UNK         0.1434 
     77 H77       -75.4420   28.4871  -71.0728 H         1 UNK         0.1329 
     78 H78       -78.1756   31.7732  -70.7789 H         1 UNK         0.1335 
     79 H79       -74.6607   30.9191  -70.6100 H         1 UNK         0.0680 
     80 H80       -75.8181   32.2049  -70.7910 H         1 UNK         0.0680 
     81 H81       -74.0772   29.5462  -73.9860 H         1 UNK         0.1032 
     82 H82       -73.7489   29.4942  -72.2826 H         1 UNK         0.1032 
     83 H83       -72.5974   31.7058  -74.0367 H         1 UNK         0.0461 
     84 H84       -70.2171   31.2358  -70.8058 H         1 UNK         0.3453 
     85 H85       -70.2040   30.0917  -72.1243 H         1 UNK         0.3453 
     86 H86       -71.6951   28.9419  -74.0186 H         1 UNK         0.2984 
     87 H87       -69.7339   29.4201  -76.7402 H         1 UNK         0.0554 
     88 H88       -67.8412   30.2440  -75.3384 H         1 UNK         0.0847 
     89 H89       -67.6514   28.5403  -75.7060 H         1 UNK         0.0847 
     90 H90       -68.2039   29.0437  -74.1077 H         1 UNK         0.0847 
     91 H91       -69.7074   27.2387  -74.8826 H         1 UNK         0.3141 
     92 H92       -70.8229   25.3135  -75.6614 H         1 UNK         0.0743 
     93 H93       -73.2539   26.4583  -74.1664 H         1 UNK         0.0784 
     94 H94       -72.5447   24.8651  -73.9100 H         1 UNK         0.0784 
     95 H95       -71.6355   26.3035  -73.4942 H         1 UNK         0.0784 
     96 H96       -73.6147   25.1080  -76.1983 H         1 UNK         0.3213 
     97 H97       -73.4390   24.7178  -79.7291 H         1 UNK         0.0855 
     98 H98       -73.9538   22.6568  -77.5162 H         1 UNK         0.0814 
     99 H99       -72.8601   22.4560  -78.8772 H         1 UNK         0.0814 
    100 H100      -74.5910   22.5742  -79.1580 H         1 UNK         0.0814 
    101 H101      -75.6029   24.5234  -77.8665 H         1 UNK         0.3105 
    102 H102      -76.4700   27.9798  -77.8306 H         1 UNK         0.0547 
    103 H103      -77.8614   25.5898  -79.1547 H         1 UNK         0.0837 
    104 H104      -77.5177   27.1350  -79.9132 H         1 UNK         0.0837 
    105 H105      -78.6512   27.0572  -78.5763 H         1 UNK         0.0837 
    106 H106      -77.3991   25.4207  -76.7075 H         1 UNK         0.3020 
    107 H107      -75.8121   25.8679  -73.6151 H         1 UNK         0.1245 
    108 H108      -78.7627   26.4829  -74.1138 H         1 UNK         0.0781 
    109 H109      -77.6562   27.5279  -73.2788 H         1 UNK         0.0781 
    110 H110      -76.1829   26.2496  -70.9253 H         1 UNK         0.0836 
    111 H111      -77.4324   26.0398  -69.7234 H         1 UNK         0.0836 
    112 H112      -77.9100   24.1248  -74.5760 H         1 UNK         0.3022 
    113 H113      -75.6732   21.7363  -76.0284 H         1 UNK         0.0747 
    114 H114      -76.7112   20.2152  -74.3663 H         1 UNK         0.0793 
    115 H115      -75.5294   21.2472  -73.5789 H         1 UNK         0.0793 
    116 H116      -77.2443   21.5904  -73.3975 H         1 UNK         0.0793 
    117 H117      -78.4650   21.6071  -75.5870 H         1 UNK         0.3047 
    118 H118      -79.3649   22.5258  -78.7872 H         1 UNK         0.0822 
    119 H119      -81.2356   21.4402  -77.6171 H         1 UNK         0.0807 
    120 H120      -80.4491   21.6183  -76.0573 H         1 UNK         0.0807 
    121 H121      -79.7616   20.5541  -77.2833 H         1 UNK         0.0807 
    122 H122      -80.5172   24.3709  -78.3492 H         1 UNK         0.2946 
    123 H123      -80.6117   26.6427  -76.9190 H         1 UNK         0.1144 
    124 H124      -82.3937   25.3591  -78.1545 H         1 UNK         0.0793 
    125 H125      -83.1485   26.5421  -77.1148 H         1 UNK         0.0793 
    126 H126      -83.1098   24.8503  -76.6302 H         1 UNK         0.0793 
    127 H127      -81.1345   25.6214  -74.3308 H         1 UNK         0.2896 
@<TRIPOS>BOND
     1    1    2 1    
     2    1   67 1    
     3    1   68 1    
     4    1   69 1    
     5    2    3 2    
     6    2    4 am   BACKBONE|DICT|INTERRES
     7    4    5 1    
     8    4   70 1    
     9    5    6 1    
    10    5   65 1    
    11    5   71 1    
    12    6    7 1    
    13    6   72 1    
    14    6   73 1    
    15    7    8 1    
    16    8    9 1    
    17    8   74 1    
    18    8   75 1    
    19    9   10 ar   
    20    9   14 ar   
    21   10   11 ar   
    22   10   76 1    
    23   11   12 ar   
    24   11   48 1    
    25   12   13 ar   
    26   12   77 1    
    27   13   14 ar   
    28   13   15 1    
    29   14   78 1    
    30   15   16 1    
    31   15   79 1    
    32   15   80 1    
    33   16   17 1    
    34   17   18 1    
    35   17   81 1    
    36   17   82 1    
    37   18   19 1    
    38   18   22 1    
    39   18   83 1    
    40   19   20 am   BACKBONE|DICT|INTERRES
    41   19   21 2    
    42   20   84 1    
    43   20   85 1    
    44   22   23 am   BACKBONE|DICT|INTERRES
    45   22   86 1    
    46   23   24 2    
    47   23   25 1    
    48   25   26 1    
    49   25   27 1    
    50   25   87 1    
    51   26   88 1    
    52   26   89 1    
    53   26   90 1    
    54   27   28 am   BACKBONE|DICT|INTERRES
    55   27   91 1    
    56   28   29 2    
    57   28   30 1    
    58   30   31 1    
    59   30   32 1    
    60   30   92 1    
    61   31   93 1    
    62   31   94 1    
    63   31   95 1    
    64   32   33 am   BACKBONE|DICT|INTERRES
    65   32   96 1    
    66   33   34 2    
    67   33   35 1    
    68   35   36 1    
    69   35   37 1    
    70   35   97 1    
    71   36   98 1    
    72   36   99 1    
    73   36  100 1    
    74   37   38 am   BACKBONE|DICT|INTERRES
    75   37  101 1    
    76   38   39 2    
    77   38   40 1    
    78   40   41 1    
    79   40   42 1    
    80   40  102 1    
    81   41  103 1    
    82   41  104 1    
    83   41  105 1    
    84   42   43 am   BACKBONE|DICT|INTERRES
    85   42  106 1    
    86   43   44 2    
    87   43   45 1    
    88   45   46 1    
    89   45   49 1    
    90   45  107 1    
    91   46   47 1    
    92   46  108 1    
    93   46  109 1    
    94   47   48 1    
    95   48  110 1    
    96   48  111 1    
    97   49   50 am   BACKBONE|DICT|INTERRES
    98   49  112 1    
    99   50   51 2    
   100   50   52 1    
   101   52   53 1    
   102   52   54 1    
   103   52  113 1    
   104   53  114 1    
   105   53  115 1    
   106   53  116 1    
   107   54   55 am   BACKBONE|DICT|INTERRES
   108   54  117 1    
   109   55   56 2    
   110   55   57 1    
   111   57   58 1    
   112   57   59 1    
   113   57  118 1    
   114   58  119 1    
   115   58  120 1    
   116   58  121 1    
   117   59   60 am   BACKBONE|DICT|INTERRES
   118   59  122 1    
   119   60   61 2    
   120   60   62 1    
   121   62   63 1    
   122   62   64 1    
   123   62  123 1    
   124   63  124 1    
   125   63  125 1    
   126   63  126 1    
   127   64   65 am   BACKBONE|DICT|INTERRES
   128   64  127 1    
   129   65   66 2    
@<TRIPOS>SUBSTRUCTURE
     1 UNK         1 GROUP             0       ****    0 ROOT    
