@<TRIPOS>MOLECULE
3R135
127   129    1
SMALL
USER_CHARGES


@<TRIPOS>ATOM
      1 CA        -85.4564   26.2569  -71.8015 C.3       0 UNK        -0.1998 
      2 C         -83.9594   25.9907  -71.8475 C.2       0 UNK         0.4909 
      3 O         -83.5385   24.8456  -71.6868 O.2       0 UNK        -0.5240 
      4 N         -83.1559   27.0387  -72.0846 N.am      1 UNK        -0.4739 
      5 CA        -81.6828   27.0298  -72.1455 C.3       1 UNK         0.0864 
      6 C6        -81.0434   26.5179  -70.8198 C.3       11 UNK        -0.0881 
      7 S7        -79.3514   27.0683  -70.3812 S.3       11 UNK        -0.2682 
      8 C8        -79.2946   28.8773  -70.6236 C.3       11 UNK         0.0289 
      9 C9        -78.4453   29.2588  -71.8332 C.ar      11 UNK        -0.0687 
     10 C10       -79.0550   29.6001  -73.0414 C.ar      11 UNK        -0.0823 
     11 C11       -78.2897   29.9085  -74.1678 C.ar      11 UNK        -0.0830 
     12 C12       -76.8965   29.9136  -74.0691 C.ar      11 UNK        -0.1021 
     13 C13       -76.2594   29.5971  -72.8650 C.ar      11 UNK        -0.0753 
     14 C14       -77.0464   29.2730  -71.7472 C.ar      11 UNK        -0.0933 
     15 C15       -74.7283   29.6500  -72.8429 C.3       11 UNK         0.0166 
     16 S16       -73.9154   29.1086  -71.2995 S.3       11 UNK        -0.2615 
     17 C17       -73.2596   27.4612  -71.7393 C.3       11 UNK        -0.0865 
     18 CA        -71.7182   27.4815  -71.9202 C.3       10 UNK         0.0862 
     19 C         -71.1025   26.0539  -71.8208 C.2       10 UNK         0.5551 
     20 N         -70.2736   25.6160  -72.7612 N.am      10 UNK        -0.7319 
     21 O         -71.3687   25.3337  -70.8620 O.2       10 UNK        -0.5018 
     22 N         -71.3434   28.1971  -73.1510 N.am      10 UNK        -0.4509 
     23 C         -70.2886   29.0088  -73.2952 C.2       10 UNK         0.4899 
     24 O         -69.5239   29.3051  -72.3767 O.2       10 UNK        -0.4839 
     25 CA        -70.0141   29.5687  -74.7066 C.3       9 UNK         0.0222 
     26 CB        -68.6368   29.1079  -75.2142 C.3       9 UNK        -0.1966 
     27 N         -71.0274   29.1804  -75.6923 N.am      9 UNK        -0.4218 
     28 C         -72.2195   29.7618  -75.8627 C.2       9 UNK         0.5020 
     29 O         -72.5859   30.7600  -75.2433 O.2       9 UNK        -0.5274 
     30 CA        -73.1871   29.1020  -76.8616 C.3       8 UNK         0.0270 
     31 CB        -72.9318   29.6003  -78.2967 C.3       8 UNK        -0.1976 
     32 N         -73.2316   27.6320  -76.8012 N.am      8 UNK        -0.4313 
     33 C         -72.2898   26.7320  -77.1242 C.2       8 UNK         0.5041 
     34 O         -71.1455   27.0286  -77.4694 O.2       8 UNK        -0.5577 
     35 CA        -72.6845   25.2501  -77.0240 C.3       7 UNK         0.0284 
     36 CB        -72.4861   24.7316  -75.5898 C.3       7 UNK        -0.1958 
     37 N         -74.0714   25.0326  -77.4425 N.am      7 UNK        -0.4454 
     38 C         -74.4618   24.8715  -78.7155 C.2       7 UNK         0.5089 
     39 O         -73.6829   24.7928  -79.6659 O.2       7 UNK        -0.5125 
     40 CA        -75.9783   24.7926  -78.9821 C.3       6 UNK         0.0408 
     41 CB        -76.4581   23.3336  -78.9362 C.3       6 UNK        -0.1791 
     42 N         -76.7737   25.5902  -78.0462 N.am      6 UNK        -0.4762 
     43 C         -76.7441   26.9291  -77.9595 C.2       6 UNK         0.5007 
     44 O         -76.1113   27.6510  -78.7293 O.2       6 UNK        -0.5032 
     45 CA        -77.5225   27.5698  -76.7912 C.3       5 UNK         0.0783 
     46 C46       -78.9193   28.0166  -77.2918 C.3       11 UNK        -0.0857 
     47 S47       -79.9913   28.8450  -76.0723 S.3       11 UNK        -0.2512 
     48 C48       -78.9830   30.2430  -75.4809 C.3       11 UNK         0.0225 
     49 N         -77.5616   26.7003  -75.6035 N.am      5 UNK        -0.4615 
     50 C         -76.4703   26.2836  -74.9393 C.2       4 UNK         0.5053 
     51 O         -75.3306   26.6535  -75.2209 O.2       4 UNK        -0.5105 
     52 CA        -76.6445   25.2372  -73.8298 C.3       4 UNK         0.0263 
     53 CB        -76.7370   25.9162  -72.4634 C.3       4 UNK        -0.1981 
     54 N         -77.8410   24.4260  -74.0329 N.am      4 UNK        -0.4224 
     55 C         -77.8793   23.2769  -74.7189 C.2       3 UNK         0.4895 
     56 O         -76.8895   22.7493  -75.2262 O.2       3 UNK        -0.5091 
     57 CA        -79.2562   22.6054  -74.8805 C.3       3 UNK         0.0250 
     58 CB        -79.4943   21.5902  -73.7514 C.3       3 UNK        -0.1996 
     59 N         -80.3696   23.5586  -74.9169 N.am      3 UNK        -0.4254 
     60 C         -80.5592   24.4616  -75.8883 C.2       2 UNK         0.5004 
     61 O         -79.8397   24.5553  -76.8837 O.2       2 UNK        -0.5226 
     62 CA        -81.7233   25.4515  -75.7069 C.3       2 UNK         0.0269 
     63 CB        -83.0121   24.8717  -76.3112 C.3       2 UNK        -0.1926 
     64 N         -81.9962   25.8950  -74.3305 N.am      2 UNK        -0.4687 
     65 C         -81.1170   26.3655  -73.4294 C.2       1 UNK         0.5165 
     66 O         -79.9017   26.3340  -73.6100 O.2       1 UNK        -0.5079 
     67 H67       -85.9662   25.6679  -72.5634 H         1 UNK         0.0900 
     68 H68       -85.6904   27.3077  -71.9718 H         1 UNK         0.0900 
     69 H69       -85.8568   25.9744  -70.8282 H         1 UNK         0.0900 
     70 H70       -83.5785   27.9462  -72.2301 H         1 UNK         0.2959 
     71 H71       -81.4298   28.0803  -72.2492 H         1 UNK         0.1079 
     72 H72       -81.0493   25.4268  -70.8019 H         1 UNK         0.0837 
     73 H73       -81.6727   26.8186  -69.9806 H         1 UNK         0.0837 
     74 H74       -80.3009   29.2905  -70.6956 H         1 UNK         0.0685 
     75 H75       -78.8567   29.3266  -69.7312 H         1 UNK         0.0685 
     76 H76       -80.1311   29.6147  -73.1226 H         1 UNK         0.1434 
     77 H77       -76.2988   30.1693  -74.9331 H         1 UNK         0.1329 
     78 H78       -76.5839   29.0170  -70.8053 H         1 UNK         0.1335 
     79 H79       -74.3397   29.0702  -73.6809 H         1 UNK         0.0680 
     80 H80       -74.4252   30.6817  -73.0265 H         1 UNK         0.0680 
     81 H81       -73.7383   27.0800  -72.6420 H         1 UNK         0.1032 
     82 H82       -73.5522   26.7851  -70.9335 H         1 UNK         0.1032 
     83 H83       -71.3005   28.0185  -71.0665 H         1 UNK         0.0461 
     84 H84       -70.0163   26.2083  -73.5328 H         1 UNK         0.3453 
     85 H85       -69.8760   24.6940  -72.6755 H         1 UNK         0.3453 
     86 H86       -71.9071   28.0069  -73.9644 H         1 UNK         0.2984 
     87 H87       -70.0010   30.6576  -74.6266 H         1 UNK         0.0554 
     88 H88       -67.8428   29.4118  -74.5305 H         1 UNK         0.0847 
     89 H89       -68.4068   29.5442  -76.1864 H         1 UNK         0.0847 
     90 H90       -68.5846   28.0230  -75.3136 H         1 UNK         0.0847 
     91 H91       -70.8254   28.3739  -76.2835 H         1 UNK         0.3141 
     92 H92       -74.1898   29.4279  -76.5799 H         1 UNK         0.0743 
     93 H93       -73.0012   30.6876  -78.3489 H         1 UNK         0.0784 
     94 H94       -71.9414   29.3209  -78.6572 H         1 UNK         0.0784 
     95 H95       -73.6680   29.1944  -78.9909 H         1 UNK         0.0784 
     96 H96       -74.0923   27.2579  -76.4039 H         1 UNK         0.3213 
     97 H97       -72.0209   24.6827  -77.6805 H         1 UNK         0.0855 
     98 H98       -71.4416   24.8203  -75.2897 H         1 UNK         0.0814 
     99 H99       -72.7549   23.6783  -75.5087 H         1 UNK         0.0814 
    100 H100      -73.0811   25.2849  -74.8629 H         1 UNK         0.0814 
    101 H101      -74.7816   25.1237  -76.7286 H         1 UNK         0.3105 
    102 H102      -76.1587   25.1795  -79.9872 H         1 UNK         0.0547 
    103 H103      -75.9125   22.7210  -79.6553 H         1 UNK         0.0837 
    104 H104      -76.3092   22.8896  -77.9511 H         1 UNK         0.0837 
    105 H105      -77.5173   23.2552  -79.1821 H         1 UNK         0.0837 
    106 H106      -77.3647   25.0852  -77.3982 H         1 UNK         0.3020 
    107 H107      -76.9590   28.4605  -76.5130 H         1 UNK         0.1245 
    108 H108      -79.4725   27.1571  -77.6743 H         1 UNK         0.0781 
    109 H109      -78.8131   28.6986  -78.1381 H         1 UNK         0.0781 
    110 H110      -79.6374   31.1007  -75.3203 H         1 UNK         0.0836 
    111 H111      -78.2695   30.5454  -76.2487 H         1 UNK         0.0836 
    112 H112      -78.4761   26.4290  -75.2636 H         1 UNK         0.3022 
    113 H113      -75.7612   24.5949  -73.8302 H         1 UNK         0.0747 
    114 H114      -75.8355   26.4759  -72.2309 H         1 UNK         0.0793 
    115 H115      -77.5603   26.6255  -72.4512 H         1 UNK         0.0793 
    116 H116      -76.8948   25.1961  -71.6608 H         1 UNK         0.0793 
    117 H117      -78.7113   24.8417  -73.7114 H         1 UNK         0.3047 
    118 H118      -79.2464   22.0664  -75.8304 H         1 UNK         0.0822 
    119 H119      -78.6914   20.8523  -73.7149 H         1 UNK         0.0807 
    120 H120      -80.4267   21.0445  -73.8976 H         1 UNK         0.0807 
    121 H121      -79.5367   22.0743  -72.7748 H         1 UNK         0.0807 
    122 H122      -81.0039   23.5615  -74.1307 H         1 UNK         0.2946 
    123 H123      -81.4623   26.3432  -76.2778 H         1 UNK         0.1144 
    124 H124      -83.8113   25.6129  -76.3298 H         1 UNK         0.0793 
    125 H125      -83.3676   24.0073  -75.7489 H         1 UNK         0.0793 
    126 H126      -82.8513   24.5480  -77.3409 H         1 UNK         0.0793 
    127 H127      -82.9703   25.9466  -74.0709 H         1 UNK         0.2896 
@<TRIPOS>BOND
     1    1    2 1    
     2    1   67 1    
     3    1   68 1    
     4    1   69 1    
     5    2    3 2    
     6    2    4 am   BACKBONE|DICT|INTERRES
     7    4    5 1    
     8    4   70 1    
     9    5    6 1    
    10    5   65 1    
    11    5   71 1    
    12    6    7 1    
    13    6   72 1    
    14    6   73 1    
    15    7    8 1    
    16    8    9 1    
    17    8   74 1    
    18    8   75 1    
    19    9   10 ar   
    20    9   14 ar   
    21   10   11 ar   
    22   10   76 1    
    23   11   12 ar   
    24   11   48 1    
    25   12   13 ar   
    26   12   77 1    
    27   13   14 ar   
    28   13   15 1    
    29   14   78 1    
    30   15   16 1    
    31   15   79 1    
    32   15   80 1    
    33   16   17 1    
    34   17   18 1    
    35   17   81 1    
    36   17   82 1    
    37   18   19 1    
    38   18   22 1    
    39   18   83 1    
    40   19   20 am   BACKBONE|DICT|INTERRES
    41   19   21 2    
    42   20   84 1    
    43   20   85 1    
    44   22   23 am   BACKBONE|DICT|INTERRES
    45   22   86 1    
    46   23   24 2    
    47   23   25 1    
    48   25   26 1    
    49   25   27 1    
    50   25   87 1    
    51   26   88 1    
    52   26   89 1    
    53   26   90 1    
    54   27   28 am   BACKBONE|DICT|INTERRES
    55   27   91 1    
    56   28   29 2    
    57   28   30 1    
    58   30   31 1    
    59   30   32 1    
    60   30   92 1    
    61   31   93 1    
    62   31   94 1    
    63   31   95 1    
    64   32   33 am   BACKBONE|DICT|INTERRES
    65   32   96 1    
    66   33   34 2    
    67   33   35 1    
    68   35   36 1    
    69   35   37 1    
    70   35   97 1    
    71   36   98 1    
    72   36   99 1    
    73   36  100 1    
    74   37   38 am   BACKBONE|DICT|INTERRES
    75   37  101 1    
    76   38   39 2    
    77   38   40 1    
    78   40   41 1    
    79   40   42 1    
    80   40  102 1    
    81   41  103 1    
    82   41  104 1    
    83   41  105 1    
    84   42   43 am   BACKBONE|DICT|INTERRES
    85   42  106 1    
    86   43   44 2    
    87   43   45 1    
    88   45   46 1    
    89   45   49 1    
    90   45  107 1    
    91   46   47 1    
    92   46  108 1    
    93   46  109 1    
    94   47   48 1    
    95   48  110 1    
    96   48  111 1    
    97   49   50 am   BACKBONE|DICT|INTERRES
    98   49  112 1    
    99   50   51 2    
   100   50   52 1    
   101   52   53 1    
   102   52   54 1    
   103   52  113 1    
   104   53  114 1    
   105   53  115 1    
   106   53  116 1    
   107   54   55 am   BACKBONE|DICT|INTERRES
   108   54  117 1    
   109   55   56 2    
   110   55   57 1    
   111   57   58 1    
   112   57   59 1    
   113   57  118 1    
   114   58  119 1    
   115   58  120 1    
   116   58  121 1    
   117   59   60 am   BACKBONE|DICT|INTERRES
   118   59  122 1    
   119   60   61 2    
   120   60   62 1    
   121   62   63 1    
   122   62   64 1    
   123   62  123 1    
   124   63  124 1    
   125   63  125 1    
   126   63  126 1    
   127   64   65 am   BACKBONE|DICT|INTERRES
   128   64  127 1    
   129   65   66 2    
@<TRIPOS>SUBSTRUCTURE
     1 UNK         1 GROUP             0       ****    0 ROOT    
