@<TRIPOS>MOLECULE
3R135
127   129    1
SMALL
USER_CHARGES


@<TRIPOS>ATOM
      1 CA        -84.8319   26.1671  -73.9596 C.3       0 UNK        -0.1998 
      2 C         -83.8949   27.3647  -74.0101 C.2       0 UNK         0.4909 
      3 O         -84.3447   28.4881  -74.2396 O.2       0 UNK        -0.5240 
      4 N         -82.5965   27.1326  -73.8030 N.am      1 UNK        -0.4739 
      5 CA        -81.5363   28.1387  -73.8236 C.3       1 UNK         0.0864 
      6 C6        -81.4244   28.9270  -72.4906 C.3       11 UNK        -0.0881 
      7 S7        -81.2193   27.8788  -71.0047 S.3       11 UNK        -0.2682 
      8 C8        -79.8679   28.7227  -70.1254 C.3       11 UNK         0.0289 
      9 C9        -78.5048   28.4600  -70.7512 C.ar      11 UNK        -0.0687 
     10 C10       -77.8744   27.2265  -70.5630 C.ar      11 UNK        -0.0823 
     11 C11       -76.5925   26.9946  -71.0725 C.ar      11 UNK        -0.0830 
     12 C12       -75.9424   28.0075  -71.7843 C.ar      11 UNK        -0.1021 
     13 C13       -76.5583   29.2501  -71.9669 C.ar      11 UNK        -0.0753 
     14 C14       -77.8429   29.4673  -71.4592 C.ar      11 UNK        -0.0933 
     15 C15       -75.8169   30.3754  -72.6686 C.3       11 UNK         0.0166 
     16 S16       -74.8402   31.3321  -71.4704 S.3       11 UNK        -0.2615 
     17 C17       -74.1756   32.6793  -72.5116 C.3       11 UNK        -0.0865 
     18 CA        -73.2594   32.2167  -73.6786 C.3       10 UNK         0.0862 
     19 C         -72.6353   33.4434  -74.4069 C.2       10 UNK         0.5551 
     20 N         -71.3191   33.6148  -74.4142 N.am      10 UNK        -0.7319 
     21 O         -73.3631   34.2536  -74.9753 O.2       10 UNK        -0.5018 
     22 N         -72.3059   31.1800  -73.2494 N.am      10 UNK        -0.4509 
     23 C         -71.6627   30.3399  -74.0679 C.2       10 UNK         0.4899 
     24 O         -71.7087   30.4182  -75.2971 O.2       10 UNK        -0.4839 
     25 CA        -70.8104   29.2330  -73.4090 C.3       9 UNK         0.0222 
     26 CB        -71.1841   28.9437  -71.9352 C.3       9 UNK        -0.1966 
     27 N         -70.8175   27.9944  -74.1987 N.am      9 UNK        -0.4218 
     28 C         -71.8853   27.2435  -74.5071 C.2       9 UNK         0.5020 
     29 O         -73.0285   27.4460  -74.0879 O.2       9 UNK        -0.5274 
     30 CA        -71.6166   26.0320  -75.4152 C.3       8 UNK         0.0270 
     31 CB        -71.3877   24.7694  -74.5694 C.3       8 UNK        -0.1976 
     32 N         -72.7393   25.8153  -76.3295 N.am      8 UNK        -0.4313 
     33 C         -72.9961   26.5910  -77.3937 C.2       8 UNK         0.5041 
     34 O         -72.2249   27.4676  -77.7893 O.2       8 UNK        -0.5577 
     35 CA        -74.3374   26.3844  -78.1269 C.3       7 UNK         0.0284 
     36 CB        -74.2712   26.7484  -79.6259 C.3       7 UNK        -0.1958 
     37 N         -74.9296   25.0589  -77.9240 N.am      7 UNK        -0.4454 
     38 C         -74.4566   23.8753  -78.3410 C.2       7 UNK         0.5089 
     39 O         -73.4389   23.7426  -79.0227 O.2       7 UNK        -0.5125 
     40 CA        -75.2591   22.6299  -77.9079 C.3       6 UNK         0.0408 
     41 CB        -74.4212   21.3351  -77.9597 C.3       6 UNK        -0.1791 
     42 N         -75.9051   22.7725  -76.5958 N.am      6 UNK        -0.4762 
     43 C         -75.3085   23.0224  -75.4166 C.2       6 UNK         0.5007 
     44 O         -74.0932   23.1779  -75.3020 O.2       6 UNK        -0.5032 
     45 CA        -76.2069   23.1452  -74.1654 C.3       5 UNK         0.0783 
     46 C46       -75.7451   24.2970  -73.2347 C.3       11 UNK        -0.0857 
     47 S47       -76.6556   24.2776  -71.6569 S.3       11 UNK        -0.2512 
     48 C48       -75.8891   25.6761  -70.7831 C.3       11 UNK         0.0225 
     49 N         -77.6097   23.3086  -74.5509 N.am      5 UNK        -0.4615 
     50 C         -78.5417   22.3493  -74.5725 C.2       4 UNK         0.5053 
     51 O         -78.3415   21.1896  -74.2124 O.2       4 UNK        -0.5105 
     52 CA        -79.9268   22.7436  -75.1190 C.3       4 UNK         0.0263 
     53 CB        -80.9178   22.9685  -73.9653 C.3       4 UNK        -0.1981 
     54 N         -79.8783   23.9417  -75.9659 N.am      4 UNK        -0.4224 
     55 C         -79.3719   23.9628  -77.2096 C.2       3 UNK         0.4895 
     56 O         -78.9528   22.9605  -77.7886 O.2       3 UNK        -0.5091 
     57 CA        -79.2581   25.3297  -77.9114 C.3       3 UNK         0.0250 
     58 CB        -80.5211   25.6137  -78.7394 C.3       3 UNK        -0.1996 
     59 N         -79.0176   26.4480  -76.9949 N.am      3 UNK        -0.4254 
     60 C         -77.9542   26.5677  -76.1870 C.2       2 UNK         0.5004 
     61 O         -77.0212   25.7672  -76.1724 O.2       2 UNK        -0.5226 
     62 CA        -77.9468   27.7445  -75.1961 C.3       2 UNK         0.0269 
     63 CB        -77.1584   28.9210  -75.7923 C.3       2 UNK        -0.1926 
     64 N         -79.2796   28.2083  -74.7833 N.am      2 UNK        -0.4687 
     65 C         -80.2262   27.4407  -74.2219 C.2       1 UNK         0.5165 
     66 O         -80.1085   26.2232  -74.0525 O.2       1 UNK        -0.5079 
     67 H67       -85.5799   26.3092  -73.1802 H         1 UNK         0.0900 
     68 H68       -85.3485   26.0539  -74.9123 H         1 UNK         0.0900 
     69 H69       -84.2972   25.2404  -73.7512 H         1 UNK         0.0900 
     70 H70       -82.2524   26.1941  -73.6414 H         1 UNK         0.2959 
     71 H71       -81.7655   28.8486  -74.6219 H         1 UNK         0.1079 
     72 H72       -82.3281   29.5214  -72.3484 H         1 UNK         0.0837 
     73 H73       -80.6109   29.6516  -72.5495 H         1 UNK         0.0837 
     74 H74       -79.8558   28.3728  -69.0921 H         1 UNK         0.0685 
     75 H75       -80.0772   29.7926  -70.0774 H         1 UNK         0.0685 
     76 H76       -78.3757   26.4502  -70.0010 H         1 UNK         0.1434 
     77 H77       -74.9433   27.8447  -72.1669 H         1 UNK         0.1329 
     78 H78       -78.3114   30.4335  -71.5863 H         1 UNK         0.1335 
     79 H79       -76.5208   31.0384  -73.1735 H         1 UNK         0.0680 
     80 H80       -75.1596   29.9630  -73.4358 H         1 UNK         0.0680 
     81 H81       -73.6272   33.3535  -71.8507 H         1 UNK         0.1032 
     82 H82       -75.0149   33.2608  -72.8981 H         1 UNK         0.1032 
     83 H83       -73.9057   31.7473  -74.4225 H         1 UNK         0.0461 
     84 H84       -70.7179   32.9493  -73.9556 H         1 UNK         0.3453 
     85 H85       -70.9247   34.4107  -74.8903 H         1 UNK         0.3453 
     86 H86       -72.2188   31.0516  -72.2522 H         1 UNK         0.2984 
     87 H87       -69.7811   29.5939  -73.4237 H         1 UNK         0.0554 
     88 H88       -70.9768   29.8013  -71.2943 H         1 UNK         0.0847 
     89 H89       -70.6044   28.1098  -71.5393 H         1 UNK         0.0847 
     90 H90       -72.2400   28.6928  -71.8226 H         1 UNK         0.0847 
     91 H91       -69.9313   27.7467  -74.6166 H         1 UNK         0.3141 
     92 H92       -70.7190   26.2174  -76.0093 H         1 UNK         0.0743 
     93 H93       -70.5045   24.8766  -73.9385 H         1 UNK         0.0784 
     94 H94       -71.2351   23.8912  -75.1973 H         1 UNK         0.0784 
     95 H95       -72.2337   24.5674  -73.9110 H         1 UNK         0.0784 
     96 H96       -73.4105   25.1056  -76.0600 H         1 UNK         0.3213 
     97 H97       -75.0297   27.0852  -77.6590 H         1 UNK         0.0855 
     98 H98       -73.5323   26.1483  -80.1574 H         1 UNK         0.0814 
     99 H99       -73.9947   27.7945  -79.7619 H         1 UNK         0.0814 
    100 H100      -75.2358   26.6048  -80.1125 H         1 UNK         0.0814 
    101 H101      -75.7549   25.0590  -77.3261 H         1 UNK         0.3105 
    102 H102      -76.0688   22.5280  -78.6320 H         1 UNK         0.0547 
    103 H103      -75.0120   20.4675  -77.6668 H         1 UNK         0.0837 
    104 H104      -73.5533   21.3886  -77.3016 H         1 UNK         0.0837 
    105 H105      -74.0519   21.1470  -78.9685 H         1 UNK         0.0837 
    106 H106      -76.9142   22.6956  -76.6026 H         1 UNK         0.3020 
    107 H107      -76.0838   22.2057  -73.6219 H         1 UNK         0.1245 
    108 H108      -75.8772   25.2687  -73.7145 H         1 UNK         0.0781 
    109 H109      -74.6823   24.2086  -73.0018 H         1 UNK         0.0781 
    110 H110      -74.8278   25.7331  -71.0309 H         1 UNK         0.0836 
    111 H111      -75.9367   25.4822  -69.7106 H         1 UNK         0.0836 
    112 H112      -77.8510   24.2290  -74.8952 H         1 UNK         0.3022 
    113 H113      -80.2929   21.9109  -75.7236 H         1 UNK         0.0747 
    114 H114      -81.9029   23.2538  -74.3346 H         1 UNK         0.0793 
    115 H115      -81.0426   22.0571  -73.3791 H         1 UNK         0.0793 
    116 H116      -80.5741   23.7459  -73.2820 H         1 UNK         0.0793 
    117 H117      -80.1378   24.8164  -75.5205 H         1 UNK         0.3047 
    118 H118      -78.4059   25.2751  -78.5924 H         1 UNK         0.0822 
    119 H119      -80.4192   26.5324  -79.3174 H         1 UNK         0.0807 
    120 H120      -81.4059   25.7088  -78.1085 H         1 UNK         0.0807 
    121 H121      -80.7120   24.8071  -79.4489 H         1 UNK         0.0807 
    122 H122      -79.7342   27.1569  -76.9423 H         1 UNK         0.2946 
    123 H123      -77.4334   27.4018  -74.2947 H         1 UNK         0.1144 
    124 H124      -77.1486   29.7779  -75.1212 H         1 UNK         0.0793 
    125 H125      -77.5795   29.2500  -76.7432 H         1 UNK         0.0793 
    126 H126      -76.1195   28.6405  -75.9723 H         1 UNK         0.0793 
    127 H127      -79.4619   29.1948  -74.9002 H         1 UNK         0.2896 
@<TRIPOS>BOND
     1    1    2 1    
     2    1   67 1    
     3    1   68 1    
     4    1   69 1    
     5    2    3 2    
     6    2    4 am   BACKBONE|DICT|INTERRES
     7    4    5 1    
     8    4   70 1    
     9    5    6 1    
    10    5   65 1    
    11    5   71 1    
    12    6    7 1    
    13    6   72 1    
    14    6   73 1    
    15    7    8 1    
    16    8    9 1    
    17    8   74 1    
    18    8   75 1    
    19    9   10 ar   
    20    9   14 ar   
    21   10   11 ar   
    22   10   76 1    
    23   11   12 ar   
    24   11   48 1    
    25   12   13 ar   
    26   12   77 1    
    27   13   14 ar   
    28   13   15 1    
    29   14   78 1    
    30   15   16 1    
    31   15   79 1    
    32   15   80 1    
    33   16   17 1    
    34   17   18 1    
    35   17   81 1    
    36   17   82 1    
    37   18   19 1    
    38   18   22 1    
    39   18   83 1    
    40   19   20 am   BACKBONE|DICT|INTERRES
    41   19   21 2    
    42   20   84 1    
    43   20   85 1    
    44   22   23 am   BACKBONE|DICT|INTERRES
    45   22   86 1    
    46   23   24 2    
    47   23   25 1    
    48   25   26 1    
    49   25   27 1    
    50   25   87 1    
    51   26   88 1    
    52   26   89 1    
    53   26   90 1    
    54   27   28 am   BACKBONE|DICT|INTERRES
    55   27   91 1    
    56   28   29 2    
    57   28   30 1    
    58   30   31 1    
    59   30   32 1    
    60   30   92 1    
    61   31   93 1    
    62   31   94 1    
    63   31   95 1    
    64   32   33 am   BACKBONE|DICT|INTERRES
    65   32   96 1    
    66   33   34 2    
    67   33   35 1    
    68   35   36 1    
    69   35   37 1    
    70   35   97 1    
    71   36   98 1    
    72   36   99 1    
    73   36  100 1    
    74   37   38 am   BACKBONE|DICT|INTERRES
    75   37  101 1    
    76   38   39 2    
    77   38   40 1    
    78   40   41 1    
    79   40   42 1    
    80   40  102 1    
    81   41  103 1    
    82   41  104 1    
    83   41  105 1    
    84   42   43 am   BACKBONE|DICT|INTERRES
    85   42  106 1    
    86   43   44 2    
    87   43   45 1    
    88   45   46 1    
    89   45   49 1    
    90   45  107 1    
    91   46   47 1    
    92   46  108 1    
    93   46  109 1    
    94   47   48 1    
    95   48  110 1    
    96   48  111 1    
    97   49   50 am   BACKBONE|DICT|INTERRES
    98   49  112 1    
    99   50   51 2    
   100   50   52 1    
   101   52   53 1    
   102   52   54 1    
   103   52  113 1    
   104   53  114 1    
   105   53  115 1    
   106   53  116 1    
   107   54   55 am   BACKBONE|DICT|INTERRES
   108   54  117 1    
   109   55   56 2    
   110   55   57 1    
   111   57   58 1    
   112   57   59 1    
   113   57  118 1    
   114   58  119 1    
   115   58  120 1    
   116   58  121 1    
   117   59   60 am   BACKBONE|DICT|INTERRES
   118   59  122 1    
   119   60   61 2    
   120   60   62 1    
   121   62   63 1    
   122   62   64 1    
   123   62  123 1    
   124   63  124 1    
   125   63  125 1    
   126   63  126 1    
   127   64   65 am   BACKBONE|DICT|INTERRES
   128   64  127 1    
   129   65   66 2    
@<TRIPOS>SUBSTRUCTURE
     1 UNK         1 GROUP             0       ****    0 ROOT    
