@<TRIPOS>MOLECULE
3R135
127   129    1
SMALL
USER_CHARGES


@<TRIPOS>ATOM
      1 CA        -84.5555   30.4721  -74.2117 C.3       0 UNK        -0.1998 
      2 C         -83.7495   29.2904  -73.6924 C.2       0 UNK         0.4909 
      3 O         -84.3364   28.3156  -73.2202 O.2       0 UNK        -0.5240 
      4 N         -82.4142   29.3792  -73.7771 N.am      1 UNK        -0.4739 
      5 CA        -81.4388   28.3563  -73.3630 C.3       1 UNK         0.0864 
      6 C6        -81.4500   28.0670  -71.8304 C.3       11 UNK        -0.0881 
      7 S7        -81.2953   29.5950  -70.8350 S.3       11 UNK        -0.2682 
      8 C8        -79.6921   29.3809  -69.9890 C.3       11 UNK         0.0289 
      9 C9        -78.5125   29.1668  -70.9331 C.ar      11 UNK        -0.0687 
     10 C10       -77.5766   28.1699  -70.6477 C.ar      11 UNK        -0.0823 
     11 C11       -76.4938   27.9446  -71.5006 C.ar      11 UNK        -0.0830 
     12 C12       -76.3492   28.7264  -72.6508 C.ar      11 UNK        -0.1021 
     13 C13       -77.2625   29.7488  -72.9406 C.ar      11 UNK        -0.0753 
     14 C14       -78.3358   29.9635  -72.0697 C.ar      11 UNK        -0.0933 
     15 C15       -77.1532   30.6242  -74.1911 C.3       11 UNK         0.0166 
     16 S16       -75.4967   30.7281  -74.9520 S.3       11 UNK        -0.2615 
     17 C17       -74.5546   31.6314  -73.6834 C.3       11 UNK        -0.0865 
     18 CA        -73.0233   31.5045  -73.9007 C.3       10 UNK         0.0862 
     19 C         -72.2686   32.5575  -73.0496 C.2       10 UNK         0.5551 
     20 N         -72.0983   33.7656  -73.5678 N.am      10 UNK        -0.7319 
     21 O         -71.8648   32.3007  -71.9159 O.2       10 UNK        -0.5018 
     22 N         -72.5201   30.1629  -73.5717 N.am      10 UNK        -0.4509 
     23 C         -72.0520   29.2554  -74.4366 C.2       10 UNK         0.4899 
     24 O         -72.1232   29.3694  -75.6603 O.2       10 UNK        -0.4839 
     25 CA        -71.3033   28.0508  -73.8395 C.3       9 UNK         0.0222 
     26 CB        -71.5056   27.8559  -72.3209 C.3       9 UNK        -0.1966 
     27 N         -71.6476   26.8126  -74.5415 N.am      9 UNK        -0.4218 
     28 C         -70.7686   25.8548  -74.8645 C.2       9 UNK         0.5020 
     29 O         -69.5523   25.9533  -74.6894 O.2       9 UNK        -0.5274 
     30 CA        -71.3232   24.5391  -75.4366 C.3       8 UNK         0.0270 
     31 CB        -71.7742   23.6136  -74.2944 C.3       8 UNK        -0.1976 
     32 N         -72.4201   24.7088  -76.3914 N.am      8 UNK        -0.4313 
     33 C         -72.2763   25.1728  -77.6408 C.2       8 UNK         0.5041 
     34 O         -71.2016   25.5447  -78.1144 O.2       8 UNK        -0.5577 
     35 CA        -73.5373   25.2062  -78.5229 C.3       7 UNK         0.0284 
     36 CB        -73.8284   23.8167  -79.1130 C.3       7 UNK        -0.1958 
     37 N         -74.7100   25.6857  -77.7924 N.am      7 UNK        -0.4454 
     38 C         -74.9090   26.9652  -77.4492 C.2       7 UNK         0.5089 
     39 O         -74.1995   27.8927  -77.8367 O.2       7 UNK        -0.5125 
     40 CA        -76.0856   27.2628  -76.5030 C.3       6 UNK         0.0408 
     41 CB        -77.3591   27.5991  -77.2924 C.3       6 UNK        -0.1791 
     42 N         -76.3680   26.1830  -75.5568 N.am      6 UNK        -0.4762 
     43 C         -75.5249   25.7482  -74.6099 C.2       6 UNK         0.5007 
     44 O         -74.4037   26.2188  -74.4212 O.2       6 UNK        -0.5032 
     45 CA        -76.0002   24.5458  -73.7731 C.3       5 UNK         0.0783 
     46 C46       -76.9892   24.9759  -72.6579 C.3       11 UNK        -0.0857 
     47 S47       -76.1848   25.1997  -71.0382 S.3       11 UNK        -0.2512 
     48 C48       -75.4674   26.8698  -71.1697 C.3       11 UNK         0.0225 
     49 N         -76.5705   23.5093  -74.6356 N.am      5 UNK        -0.4615 
     50 C         -75.8735   22.7804  -75.5164 C.2       4 UNK         0.5053 
     51 O         -74.6573   22.8770  -75.6734 O.2       4 UNK        -0.5105 
     52 CA        -76.6802   21.8153  -76.4005 C.3       4 UNK         0.0263 
     53 CB        -76.9205   20.4846  -75.6706 C.3       4 UNK        -0.1981 
     54 N         -77.9626   22.3848  -76.8245 N.am      4 UNK        -0.4224 
     55 C         -78.0795   23.4359  -77.6485 C.2       3 UNK         0.4895 
     56 O         -77.1221   24.0012  -78.1760 O.2       3 UNK        -0.5091 
     57 CA        -79.4992   23.9737  -77.8936 C.3       3 UNK         0.0250 
     58 CB        -80.1904   23.1791  -79.0131 C.3       3 UNK        -0.1996 
     59 N         -80.3564   23.9940  -76.7009 N.am      3 UNK        -0.4254 
     60 C         -80.0833   24.6588  -75.5691 C.2       2 UNK         0.5004 
     61 O         -79.0171   25.2372  -75.3517 O.2       2 UNK        -0.5226 
     62 CA        -81.1688   24.6518  -74.4795 C.3       2 UNK         0.0269 
     63 CB        -80.9415   23.4879  -73.5016 C.3       2 UNK        -0.1926 
     64 N         -81.1930   25.9134  -73.7305 N.am      2 UNK        -0.4687 
     65 C         -81.5480   27.0953  -74.2574 C.2       1 UNK         0.5165 
     66 O         -81.9368   27.2150  -75.4236 O.2       1 UNK        -0.5079 
     67 H67       -83.9153   31.2679  -74.5921 H         1 UNK         0.0900 
     68 H68       -85.1712   30.8855  -73.4133 H         1 UNK         0.0900 
     69 H69       -85.2135   30.1513  -75.0189 H         1 UNK         0.0900 
     70 H70       -82.0096   30.2022  -74.2003 H         1 UNK         0.2959 
     71 H71       -80.4596   28.7732  -73.6023 H         1 UNK         0.1079 
     72 H72       -82.3742   27.5650  -71.5392 H         1 UNK         0.0837 
     73 H73       -80.6382   27.3918  -71.5560 H         1 UNK         0.0837 
     74 H74       -79.4962   30.2666  -69.3835 H         1 UNK         0.0685 
     75 H75       -79.7841   28.5460  -69.2923 H         1 UNK         0.0685 
     76 H76       -77.6895   27.5604  -69.7612 H         1 UNK         0.1434 
     77 H77       -75.5169   28.5384  -73.3145 H         1 UNK         0.1329 
     78 H78       -79.0496   30.7468  -72.2853 H         1 UNK         0.1335 
     79 H79       -77.8436   30.2318  -74.9388 H         1 UNK         0.0680 
     80 H80       -77.4870   31.6379  -73.9638 H         1 UNK         0.0680 
     81 H81       -74.8312   31.2747  -72.6897 H         1 UNK         0.1032 
     82 H82       -74.8709   32.6754  -73.7315 H         1 UNK         0.1032 
     83 H83       -72.8006   31.7264  -74.9467 H         1 UNK         0.0461 
     84 H84       -72.4318   33.9888  -74.4929 H         1 UNK         0.3453 
     85 H85       -71.6203   34.4685  -73.0255 H         1 UNK         0.3453 
     86 H86       -72.3600   30.0141  -72.5852 H         1 UNK         0.2984 
     87 H87       -70.2467   28.2727  -74.0015 H         1 UNK         0.0554 
     88 H88       -70.9707   26.9760  -71.9627 H         1 UNK         0.0847 
     89 H89       -72.5569   27.7271  -72.0673 H         1 UNK         0.0847 
     90 H90       -71.1236   28.7048  -71.7526 H         1 UNK         0.0847 
     91 H91       -72.6409   26.6527  -74.7077 H         1 UNK         0.3141 
     92 H92       -70.5039   24.0421  -75.9608 H         1 UNK         0.0743 
     93 H93       -72.6195   24.0317  -73.7468 H         1 UNK         0.0784 
     94 H94       -72.0698   22.6340  -74.6707 H         1 UNK         0.0784 
     95 H95       -70.9674   23.4543  -73.5777 H         1 UNK         0.0784 
     96 H96       -73.3309   24.3686  -76.0995 H         1 UNK         0.3213 
     97 H97       -73.3458   25.8903  -79.3527 H         1 UNK         0.0855 
     98 H98       -74.0412   23.0813  -78.3368 H         1 UNK         0.0814 
     99 H99       -72.9753   23.4500  -79.6853 H         1 UNK         0.0814 
    100 H100      -74.6843   23.8452  -79.7878 H         1 UNK         0.0814 
    101 H101      -75.4066   24.9987  -77.5244 H         1 UNK         0.3105 
    102 H102      -75.8106   28.1345  -75.9125 H         1 UNK         0.0547 
    103 H103      -77.1920   28.4485  -77.9558 H         1 UNK         0.0837 
    104 H104      -77.6821   26.7603  -77.9089 H         1 UNK         0.0837 
    105 H105      -78.1809   27.8628  -76.6263 H         1 UNK         0.0837 
    106 H106      -77.2952   25.7614  -75.6051 H         1 UNK         0.3020 
    107 H107      -75.1130   24.1076  -73.3099 H         1 UNK         0.1245 
    108 H108      -77.7329   24.1944  -72.4997 H         1 UNK         0.0781 
    109 H109      -77.5699   25.8611  -72.9261 H         1 UNK         0.0781 
    110 H110      -74.6715   26.8499  -71.9119 H         1 UNK         0.0836 
    111 H111      -74.9886   27.1205  -70.2223 H         1 UNK         0.0836 
    112 H112      -77.5761   23.4258  -74.6288 H         1 UNK         0.3022 
    113 H113      -76.0874   21.6126  -77.2952 H         1 UNK         0.0747 
    114 H114      -77.4233   19.7638  -76.3157 H         1 UNK         0.0793 
    115 H115      -75.9759   20.0352  -75.3606 H         1 UNK         0.0793 
    116 H116      -77.5285   20.6157  -74.7745 H         1 UNK         0.0793 
    117 H117      -78.8021   21.9755  -76.4412 H         1 UNK         0.3047 
    118 H118      -79.3961   25.0073  -78.2300 H         1 UNK         0.0822 
    119 H119      -81.1491   23.6231  -79.2819 H         1 UNK         0.0807 
    120 H120      -80.3687   22.1423  -78.7248 H         1 UNK         0.0807 
    121 H121      -79.5788   23.1654  -79.9166 H         1 UNK         0.0807 
    122 H122      -81.2493   23.5292  -76.7858 H         1 UNK         0.2946 
    123 H123      -82.1430   24.5251  -74.9577 H         1 UNK         0.1144 
    124 H124      -79.9914   23.5796  -72.9756 H         1 UNK         0.0793 
    125 H125      -80.9341   22.5305  -74.0245 H         1 UNK         0.0793 
    126 H126      -81.7337   23.4388  -72.7542 H         1 UNK         0.0793 
    127 H127      -80.8529   25.8813  -72.7815 H         1 UNK         0.2896 
@<TRIPOS>BOND
     1    1    2 1    
     2    1   67 1    
     3    1   68 1    
     4    1   69 1    
     5    2    3 2    
     6    2    4 am   BACKBONE|DICT|INTERRES
     7    4    5 1    
     8    4   70 1    
     9    5    6 1    
    10    5   65 1    
    11    5   71 1    
    12    6    7 1    
    13    6   72 1    
    14    6   73 1    
    15    7    8 1    
    16    8    9 1    
    17    8   74 1    
    18    8   75 1    
    19    9   10 ar   
    20    9   14 ar   
    21   10   11 ar   
    22   10   76 1    
    23   11   12 ar   
    24   11   48 1    
    25   12   13 ar   
    26   12   77 1    
    27   13   14 ar   
    28   13   15 1    
    29   14   78 1    
    30   15   16 1    
    31   15   79 1    
    32   15   80 1    
    33   16   17 1    
    34   17   18 1    
    35   17   81 1    
    36   17   82 1    
    37   18   19 1    
    38   18   22 1    
    39   18   83 1    
    40   19   20 am   BACKBONE|DICT|INTERRES
    41   19   21 2    
    42   20   84 1    
    43   20   85 1    
    44   22   23 am   BACKBONE|DICT|INTERRES
    45   22   86 1    
    46   23   24 2    
    47   23   25 1    
    48   25   26 1    
    49   25   27 1    
    50   25   87 1    
    51   26   88 1    
    52   26   89 1    
    53   26   90 1    
    54   27   28 am   BACKBONE|DICT|INTERRES
    55   27   91 1    
    56   28   29 2    
    57   28   30 1    
    58   30   31 1    
    59   30   32 1    
    60   30   92 1    
    61   31   93 1    
    62   31   94 1    
    63   31   95 1    
    64   32   33 am   BACKBONE|DICT|INTERRES
    65   32   96 1    
    66   33   34 2    
    67   33   35 1    
    68   35   36 1    
    69   35   37 1    
    70   35   97 1    
    71   36   98 1    
    72   36   99 1    
    73   36  100 1    
    74   37   38 am   BACKBONE|DICT|INTERRES
    75   37  101 1    
    76   38   39 2    
    77   38   40 1    
    78   40   41 1    
    79   40   42 1    
    80   40  102 1    
    81   41  103 1    
    82   41  104 1    
    83   41  105 1    
    84   42   43 am   BACKBONE|DICT|INTERRES
    85   42  106 1    
    86   43   44 2    
    87   43   45 1    
    88   45   46 1    
    89   45   49 1    
    90   45  107 1    
    91   46   47 1    
    92   46  108 1    
    93   46  109 1    
    94   47   48 1    
    95   48  110 1    
    96   48  111 1    
    97   49   50 am   BACKBONE|DICT|INTERRES
    98   49  112 1    
    99   50   51 2    
   100   50   52 1    
   101   52   53 1    
   102   52   54 1    
   103   52  113 1    
   104   53  114 1    
   105   53  115 1    
   106   53  116 1    
   107   54   55 am   BACKBONE|DICT|INTERRES
   108   54  117 1    
   109   55   56 2    
   110   55   57 1    
   111   57   58 1    
   112   57   59 1    
   113   57  118 1    
   114   58  119 1    
   115   58  120 1    
   116   58  121 1    
   117   59   60 am   BACKBONE|DICT|INTERRES
   118   59  122 1    
   119   60   61 2    
   120   60   62 1    
   121   62   63 1    
   122   62   64 1    
   123   62  123 1    
   124   63  124 1    
   125   63  125 1    
   126   63  126 1    
   127   64   65 am   BACKBONE|DICT|INTERRES
   128   64  127 1    
   129   65   66 2    
@<TRIPOS>SUBSTRUCTURE
     1 UNK         1 GROUP             0       ****    0 ROOT    
