@<TRIPOS>MOLECULE
3R135
127   129    1
SMALL
USER_CHARGES


@<TRIPOS>ATOM
      1 CA        -83.6655   27.3344  -70.8855 C.3       0 UNK        -0.1998 
      2 C         -83.2630   27.8354  -72.2644 C.2       0 UNK         0.4909 
      3 O         -84.1214   27.9983  -73.1320 O.2       0 UNK        -0.5240 
      4 N         -81.9627   28.0823  -72.4702 N.am      1 UNK        -0.4739 
      5 CA        -81.3888   28.5513  -73.7392 C.3       1 UNK         0.0864 
      6 C6        -79.9705   29.1400  -73.5417 C.3       11 UNK        -0.0881 
      7 S7        -79.9903   30.7034  -72.5916 S.3       11 UNK        -0.2682 
      8 C8        -79.6757   30.1805  -70.8707 C.3       11 UNK         0.0289 
      9 C9        -78.3278   29.4938  -70.7139 C.ar      11 UNK        -0.0687 
     10 C10       -78.2618   28.1116  -70.5240 C.ar      11 UNK        -0.0823 
     11 C11       -77.0263   27.4639  -70.4554 C.ar      11 UNK        -0.0830 
     12 C12       -75.8511   28.2177  -70.5408 C.ar      11 UNK        -0.1021 
     13 C13       -75.8977   29.6059  -70.7087 C.ar      11 UNK        -0.0753 
     14 C14       -77.1464   30.2378  -70.7822 C.ar      11 UNK        -0.0933 
     15 C15       -74.5770   30.3738  -70.8031 C.3       11 UNK         0.0166 
     16 S16       -74.6550   32.0013  -71.6301 S.3       11 UNK        -0.2615 
     17 C17       -75.1431   31.5485  -73.3341 C.3       11 UNK        -0.0865 
     18 CA        -74.0002   31.6720  -74.3813 C.3       10 UNK         0.0862 
     19 C         -73.5201   33.1303  -74.6354 C.2       10 UNK         0.5551 
     20 N         -72.2314   33.3759  -74.8452 N.am      10 UNK        -0.7319 
     21 O         -74.3292   34.0543  -74.6721 O.2       10 UNK        -0.5018 
     22 N         -72.9082   30.7158  -74.1342 N.am      10 UNK        -0.4509 
     23 C         -72.9341   29.4313  -74.5021 C.2       10 UNK         0.4899 
     24 O         -73.8802   28.9139  -75.0938 O.2       10 UNK        -0.4839 
     25 CA        -71.7036   28.5898  -74.1367 C.3       9 UNK         0.0222 
     26 CB        -71.5640   28.4339  -72.6089 C.3       9 UNK        -0.1966 
     27 N         -71.7897   27.2645  -74.7534 N.am      9 UNK        -0.4218 
     28 C         -70.7416   26.4744  -75.0197 C.2       9 UNK         0.5020 
     29 O         -69.5710   26.8194  -74.8486 O.2       9 UNK        -0.5274 
     30 CA        -71.0210   25.0538  -75.5346 C.3       8 UNK         0.0270 
     31 CB        -71.3468   24.1184  -74.3574 C.3       8 UNK        -0.1976 
     32 N         -72.1205   25.0032  -76.4999 N.am      8 UNK        -0.4313 
     33 C         -71.9848   24.7155  -77.8020 C.2       8 UNK         0.5041 
     34 O         -70.8962   24.5304  -78.3491 O.2       8 UNK        -0.5577 
     35 CA        -73.2652   24.5725  -78.6505 C.3       7 UNK         0.0284 
     36 CB        -73.5893   23.0862  -78.8745 C.3       7 UNK        -0.1958 
     37 N         -74.4417   25.2278  -78.0784 N.am      7 UNK        -0.4454 
     38 C         -74.6043   26.5530  -77.9771 C.2       7 UNK         0.5089 
     39 O         -73.8107   27.3769  -78.4328 O.2       7 UNK        -0.5125 
     40 CA        -75.8510   27.0404  -77.2177 C.3       6 UNK         0.0408 
     41 CB        -77.0215   27.2412  -78.1913 C.3       6 UNK        -0.1791 
     42 N         -76.2791   26.1708  -76.1138 N.am      6 UNK        -0.4762 
     43 C         -75.5198   25.7658  -75.0822 C.2       6 UNK         0.5007 
     44 O         -74.3107   25.9685  -74.9863 O.2       6 UNK        -0.5032 
     45 CA        -76.2299   24.9659  -73.9813 C.3       5 UNK         0.0783 
     46 C46       -77.1762   25.8900  -73.1820 C.3       11 UNK        -0.0857 
     47 S47       -77.8632   25.0956  -71.6910 S.3       11 UNK        -0.2512 
     48 C48       -76.9571   25.9437  -70.3477 C.3       11 UNK         0.0225 
     49 N         -76.9091   23.8176  -74.5792 N.am      5 UNK        -0.4615 
     50 C         -76.2818   22.7016  -74.9761 C.2       4 UNK         0.5053 
     51 O         -75.0943   22.4677  -74.7522 O.2       4 UNK        -0.5105 
     52 CA        -77.1061   21.6798  -75.7796 C.3       4 UNK         0.0263 
     53 CB        -77.7299   20.6361  -74.8393 C.3       4 UNK        -0.1981 
     54 N         -78.1614   22.2931  -76.5898 N.am      4 UNK        -0.4224 
     55 C         -77.9562   23.1321  -77.6164 C.2       3 UNK         0.4895 
     56 O         -76.8429   23.4465  -78.0379 O.2       3 UNK        -0.5091 
     57 CA        -79.2118   23.7701  -78.2396 C.3       3 UNK         0.0250 
     58 CB        -79.7807   22.8688  -79.3466 C.3       3 UNK        -0.1996 
     59 N         -80.2640   24.0731  -77.2599 N.am      3 UNK        -0.4254 
     60 C         -80.1131   24.8873  -76.2050 C.2       2 UNK         0.5004 
     61 O         -79.0610   25.4743  -75.9442 O.2       2 UNK        -0.5226 
     62 CA        -81.3094   24.9868  -75.2434 C.3       2 UNK         0.0269 
     63 CB        -81.3533   23.7489  -74.3307 C.3       2 UNK        -0.1926 
     64 N         -81.2732   26.1806  -74.3943 N.am      2 UNK        -0.4687 
     65 C         -81.3898   27.4472  -74.8205 C.2       1 UNK         0.5165 
     66 O         -81.5341   27.7601  -76.0036 O.2       1 UNK        -0.5079 
     67 H67       -82.8095   27.2452  -70.2168 H         1 UNK         0.0900 
     68 H68       -84.3797   28.0206  -70.4313 H         1 UNK         0.0900 
     69 H69       -84.1369   26.3553  -70.9654 H         1 UNK         0.0900 
     70 H70       -81.3066   27.9378  -71.7184 H         1 UNK         0.2959 
     71 H71       -82.0321   29.3484  -74.1197 H         1 UNK         0.1079 
     72 H72       -79.3037   28.4128  -73.0779 H         1 UNK         0.0837 
     73 H73       -79.5210   29.3719  -74.5095 H         1 UNK         0.0837 
     74 H74       -80.4860   29.5357  -70.5299 H         1 UNK         0.0685 
     75 H75       -79.7036   31.0619  -70.2284 H         1 UNK         0.0685 
     76 H76       -79.1704   27.5282  -70.4710 H         1 UNK         0.1434 
     77 H77       -74.8920   27.7198  -70.4933 H         1 UNK         0.1329 
     78 H78       -77.2120   31.3080  -70.9170 H         1 UNK         0.1335 
     79 H79       -74.1934   30.5211  -69.7929 H         1 UNK         0.0680 
     80 H80       -73.8393   29.7675  -71.3281 H         1 UNK         0.0680 
     81 H81       -75.9853   32.1800  -73.6223 H         1 UNK         0.1032 
     82 H82       -75.5378   30.5315  -73.3444 H         1 UNK         0.1032 
     83 H83       -74.4417   31.4019  -75.3427 H         1 UNK         0.0461 
     84 H84       -71.9383   34.3253  -75.0158 H         1 UNK         0.3453 
     85 H85       -71.5570   32.6300  -74.8910 H         1 UNK         0.3453 
     86 H86       -72.1149   31.0785  -73.6258 H         1 UNK         0.2984 
     87 H87       -70.8277   29.1103  -74.5294 H         1 UNK         0.0554 
     88 H88       -71.4841   29.4010  -72.1117 H         1 UNK         0.0847 
     89 H89       -70.6687   27.8699  -72.3469 H         1 UNK         0.0847 
     90 H90       -72.4211   27.9121  -72.1816 H         1 UNK         0.0847 
     91 H91       -72.7389   26.9367  -74.9346 H         1 UNK         0.3141 
     92 H92       -70.0989   24.6920  -75.9944 H         1 UNK         0.0743 
     93 H93       -70.5438   24.1239  -73.6189 H         1 UNK         0.0784 
     94 H94       -72.2641   24.4135  -73.8459 H         1 UNK         0.0784 
     95 H95       -71.4710   23.0889  -74.6940 H         1 UNK         0.0784 
     96 H96       -73.0481   25.1988  -76.1309 H         1 UNK         0.3213 
     97 H97       -73.0637   25.0296  -79.6216 H         1 UNK         0.0855 
     98 H98       -73.8318   22.5824  -77.9376 H         1 UNK         0.0814 
     99 H99       -72.7426   22.5617  -79.3195 H         1 UNK         0.0814 
    100 H100      -74.4369   22.9625  -79.5490 H         1 UNK         0.0814 
    101 H101      -75.1902   24.6255  -77.7484 H         1 UNK         0.3105 
    102 H102      -75.6130   28.0110  -76.7820 H         1 UNK         0.0547 
    103 H103      -77.9158   27.5950  -77.6776 H         1 UNK         0.0837 
    104 H104      -77.2720   26.3160  -78.7087 H         1 UNK         0.0837 
    105 H105      -76.7700   27.9800  -78.9533 H         1 UNK         0.0837 
    106 H106      -77.2678   25.9250  -76.0977 H         1 UNK         0.3020 
    107 H107      -75.4593   24.6011  -73.2976 H         1 UNK         0.1245 
    108 H108      -78.0153   26.2230  -73.7918 H         1 UNK         0.0781 
    109 H109      -76.6484   26.8032  -72.9072 H         1 UNK         0.0781 
    110 H110      -75.9212   25.6012  -70.3586 H         1 UNK         0.0836 
    111 H111      -77.3732   25.6345  -69.3881 H         1 UNK         0.0836 
    112 H112      -77.8726   23.9647  -74.8463 H         1 UNK         0.3022 
    113 H113      -76.4210   21.1671  -76.4584 H         1 UNK         0.0747 
    114 H114      -78.2498   19.8576  -75.3980 H         1 UNK         0.0793 
    115 H115      -76.9624   20.1441  -74.2399 H         1 UNK         0.0793 
    116 H116      -78.4423   21.0886  -74.1481 H         1 UNK         0.0793 
    117 H117      -79.1137   22.0915  -76.3239 H         1 UNK         0.3047 
    118 H118      -78.9103   24.7138  -78.6954 H         1 UNK         0.0822 
    119 H119      -80.6114   23.3502  -79.8632 H         1 UNK         0.0807 
    120 H120      -80.1362   21.9159  -78.9524 H         1 UNK         0.0807 
    121 H121      -79.0206   22.6474  -80.0974 H         1 UNK         0.0807 
    122 H122      -81.1549   23.6181  -77.4014 H         1 UNK         0.2946 
    123 H123      -82.2241   25.0276  -75.8390 H         1 UNK         0.1144 
    124 H124      -80.4573   23.6721  -73.7123 H         1 UNK         0.0793 
    125 H125      -81.4296   22.8284  -74.9108 H         1 UNK         0.0793 
    126 H126      -82.2166   23.7777  -73.6654 H         1 UNK         0.0793 
    127 H127      -81.1494   26.0260  -73.4051 H         1 UNK         0.2896 
@<TRIPOS>BOND
     1    1    2 1    
     2    1   67 1    
     3    1   68 1    
     4    1   69 1    
     5    2    3 2    
     6    2    4 am   BACKBONE|DICT|INTERRES
     7    4    5 1    
     8    4   70 1    
     9    5    6 1    
    10    5   65 1    
    11    5   71 1    
    12    6    7 1    
    13    6   72 1    
    14    6   73 1    
    15    7    8 1    
    16    8    9 1    
    17    8   74 1    
    18    8   75 1    
    19    9   10 ar   
    20    9   14 ar   
    21   10   11 ar   
    22   10   76 1    
    23   11   12 ar   
    24   11   48 1    
    25   12   13 ar   
    26   12   77 1    
    27   13   14 ar   
    28   13   15 1    
    29   14   78 1    
    30   15   16 1    
    31   15   79 1    
    32   15   80 1    
    33   16   17 1    
    34   17   18 1    
    35   17   81 1    
    36   17   82 1    
    37   18   19 1    
    38   18   22 1    
    39   18   83 1    
    40   19   20 am   BACKBONE|DICT|INTERRES
    41   19   21 2    
    42   20   84 1    
    43   20   85 1    
    44   22   23 am   BACKBONE|DICT|INTERRES
    45   22   86 1    
    46   23   24 2    
    47   23   25 1    
    48   25   26 1    
    49   25   27 1    
    50   25   87 1    
    51   26   88 1    
    52   26   89 1    
    53   26   90 1    
    54   27   28 am   BACKBONE|DICT|INTERRES
    55   27   91 1    
    56   28   29 2    
    57   28   30 1    
    58   30   31 1    
    59   30   32 1    
    60   30   92 1    
    61   31   93 1    
    62   31   94 1    
    63   31   95 1    
    64   32   33 am   BACKBONE|DICT|INTERRES
    65   32   96 1    
    66   33   34 2    
    67   33   35 1    
    68   35   36 1    
    69   35   37 1    
    70   35   97 1    
    71   36   98 1    
    72   36   99 1    
    73   36  100 1    
    74   37   38 am   BACKBONE|DICT|INTERRES
    75   37  101 1    
    76   38   39 2    
    77   38   40 1    
    78   40   41 1    
    79   40   42 1    
    80   40  102 1    
    81   41  103 1    
    82   41  104 1    
    83   41  105 1    
    84   42   43 am   BACKBONE|DICT|INTERRES
    85   42  106 1    
    86   43   44 2    
    87   43   45 1    
    88   45   46 1    
    89   45   49 1    
    90   45  107 1    
    91   46   47 1    
    92   46  108 1    
    93   46  109 1    
    94   47   48 1    
    95   48  110 1    
    96   48  111 1    
    97   49   50 am   BACKBONE|DICT|INTERRES
    98   49  112 1    
    99   50   51 2    
   100   50   52 1    
   101   52   53 1    
   102   52   54 1    
   103   52  113 1    
   104   53  114 1    
   105   53  115 1    
   106   53  116 1    
   107   54   55 am   BACKBONE|DICT|INTERRES
   108   54  117 1    
   109   55   56 2    
   110   55   57 1    
   111   57   58 1    
   112   57   59 1    
   113   57  118 1    
   114   58  119 1    
   115   58  120 1    
   116   58  121 1    
   117   59   60 am   BACKBONE|DICT|INTERRES
   118   59  122 1    
   119   60   61 2    
   120   60   62 1    
   121   62   63 1    
   122   62   64 1    
   123   62  123 1    
   124   63  124 1    
   125   63  125 1    
   126   63  126 1    
   127   64   65 am   BACKBONE|DICT|INTERRES
   128   64  127 1    
   129   65   66 2    
@<TRIPOS>SUBSTRUCTURE
     1 UNK         1 GROUP             0       ****    0 ROOT    
