@<TRIPOS>MOLECULE
3R135
127   129    1
SMALL
USER_CHARGES


@<TRIPOS>ATOM
      1 CA        -80.3785   22.9667  -70.5783 C.3       0 UNK        -0.1998 
      2 C         -79.9023   24.0076  -71.5790 C.2       0 UNK         0.4909 
      3 O         -79.1468   23.6699  -72.4911 O.2       0 UNK        -0.5240 
      4 N         -80.3540   25.2622  -71.4236 N.am      1 UNK        -0.4739 
      5 CA        -79.9995   26.4336  -72.2413 C.3       1 UNK         0.0864 
      6 C6        -78.5723   26.9676  -71.9381 C.3       11 UNK        -0.0881 
      7 S7        -78.4559   27.8237  -70.3339 S.3       11 UNK        -0.2682 
      8 C8        -79.1402   29.4689  -70.7282 C.3       11 UNK         0.0289 
      9 C9        -78.2328   30.3033  -71.6249 C.ar      11 UNK        -0.0687 
     10 C10       -78.4028   30.2882  -73.0143 C.ar      11 UNK        -0.0823 
     11 C11       -77.6074   31.0899  -73.8378 C.ar      11 UNK        -0.0830 
     12 C12       -76.6516   31.9304  -73.2594 C.ar      11 UNK        -0.1021 
     13 C13       -76.4872   31.9743  -71.8716 C.ar      11 UNK        -0.0753 
     14 C14       -77.2686   31.1453  -71.0601 C.ar      11 UNK        -0.0933 
     15 C15       -75.5212   32.9775  -71.2558 C.3       11 UNK         0.0166 
     16 S16       -73.7880   32.4354  -71.3518 S.3       11 UNK        -0.2615 
     17 C17       -73.6505   31.3524  -69.8883 C.3       11 UNK        -0.0865 
     18 CA        -72.8814   30.0433  -70.1988 C.3       10 UNK         0.0862 
     19 C         -72.5785   29.2467  -68.8955 C.2       10 UNK         0.5551 
     20 N         -73.0479   28.0144  -68.7408 N.am      10 UNK        -0.7319 
     21 O         -71.8960   29.7566  -68.0103 O.2       10 UNK        -0.5018 
     22 N         -73.5550   29.2620  -71.2481 N.am      10 UNK        -0.4509 
     23 C         -72.9485   28.4021  -72.0742 C.2       10 UNK         0.4899 
     24 O         -71.7351   28.1888  -72.0684 O.2       10 UNK        -0.4839 
     25 CA        -73.8381   27.6401  -73.0700 C.3       9 UNK         0.0222 
     26 CB        -75.3191   28.0677  -73.0478 C.3       9 UNK        -0.1966 
     27 N         -73.3044   27.8080  -74.4225 N.am      9 UNK        -0.4218 
     28 C         -72.7347   26.8375  -75.1450 C.2       9 UNK         0.5020 
     29 O         -72.6064   25.6713  -74.7644 O.2       9 UNK        -0.5274 
     30 CA        -72.2126   27.2274  -76.5331 C.3       8 UNK         0.0270 
     31 CB        -70.6773   27.3734  -76.5015 C.3       8 UNK        -0.1976 
     32 N         -72.6363   26.1876  -77.4690 N.am      8 UNK        -0.4313 
     33 C         -72.4798   26.1761  -78.7982 C.2       8 UNK         0.5041 
     34 O         -71.9290   27.0729  -79.4378 O.2       8 UNK        -0.5577 
     35 CA        -73.0677   24.9706  -79.5469 C.3       7 UNK         0.0284 
     36 CB        -72.5344   23.6351  -78.9961 C.3       7 UNK        -0.1958 
     37 N         -74.5233   25.0033  -79.4320 N.am      7 UNK        -0.4454 
     38 C         -75.3757   25.3013  -80.4232 C.2       7 UNK         0.5089 
     39 O         -75.0394   25.4485  -81.5989 O.2       7 UNK        -0.5125 
     40 CA        -76.8599   25.4903  -80.0407 C.3       6 UNK         0.0408 
     41 CB        -77.6458   24.1909  -80.2736 C.3       6 UNK        -0.1791 
     42 N         -77.0421   25.9200  -78.6514 N.am      6 UNK        -0.4762 
     43 C         -76.5995   27.0825  -78.1471 C.2       6 UNK         0.5007 
     44 O         -76.1626   27.9936  -78.8505 O.2       6 UNK        -0.5032 
     45 CA        -76.5684   27.2281  -76.6076 C.3       5 UNK         0.0783 
     46 C46       -77.4584   28.3922  -76.0966 C.3       11 UNK        -0.0857 
     47 S47       -76.6221   30.0099  -76.2022 S.3       11 UNK        -0.2512 
     48 C48       -77.8098   31.0925  -75.3473 C.3       11 UNK         0.0225 
     49 N         -76.8246   25.9723  -75.8821 N.am      5 UNK        -0.4615 
     50 C         -75.9937   24.9180  -75.8718 C.2       4 UNK         0.5053 
     51 O         -74.9941   24.8382  -76.5851 O.2       4 UNK        -0.5105 
     52 CA        -76.3309   23.7488  -74.9388 C.3       4 UNK         0.0263 
     53 CB        -75.9071   24.0704  -73.4989 C.3       4 UNK        -0.1981 
     54 N         -77.7419   23.3636  -74.9754 N.am      4 UNK        -0.4224 
     55 C         -78.3145   22.7313  -76.0104 C.2       3 UNK         0.4895 
     56 O         -77.7348   22.4815  -77.0675 O.2       3 UNK        -0.5091 
     57 CA        -79.7750   22.2924  -75.8353 C.3       3 UNK         0.0250 
     58 CB        -79.8845   21.1038  -74.8650 C.3       3 UNK        -0.1996 
     59 N         -80.6077   23.3955  -75.3636 N.am      3 UNK        -0.4254 
     60 C         -81.1153   24.3470  -76.1588 C.2       2 UNK         0.5004 
     61 O         -81.0003   24.3506  -77.3848 O.2       2 UNK        -0.5226 
     62 CA        -81.8808   25.4957  -75.4763 C.3       2 UNK         0.0269 
     63 CB        -83.3932   25.2209  -75.4979 C.3       2 UNK        -0.1926 
     64 N         -81.4592   25.7662  -74.0965 N.am      2 UNK        -0.4687 
     65 C         -80.2347   26.1854  -73.7473 C.2       1 UNK         0.5165 
     66 O         -79.3168   26.3340  -74.5545 O.2       1 UNK        -0.5079 
     67 H67       -80.9049   22.1646  -71.0947 H         1 UNK         0.0900 
     68 H68       -79.5252   22.5339  -70.0569 H         1 UNK         0.0900 
     69 H69       -81.0514   23.3924  -69.8342 H         1 UNK         0.0900 
     70 H70       -80.9792   25.4574  -70.6538 H         1 UNK         0.2959 
     71 H71       -80.7122   27.2161  -71.9793 H         1 UNK         0.1079 
     72 H72       -77.8594   26.1451  -71.9276 H         1 UNK         0.0837 
     73 H73       -78.2172   27.6479  -72.7089 H         1 UNK         0.0837 
     74 H74       -80.1239   29.3601  -71.1861 H         1 UNK         0.0685 
     75 H75       -79.3105   30.0009  -69.7910 H         1 UNK         0.0685 
     76 H76       -79.1641   29.6603  -73.4563 H         1 UNK         0.1434 
     77 H77       -76.0495   32.5711  -73.8895 H         1 UNK         0.1329 
     78 H78       -77.1555   31.1823  -69.9853 H         1 UNK         0.1335 
     79 H79       -75.7860   33.1887  -70.2185 H         1 UNK         0.0680 
     80 H80       -75.6130   33.9275  -71.7846 H         1 UNK         0.0680 
     81 H81       -73.1417   31.9228  -69.1087 H         1 UNK         0.1032 
     82 H82       -74.6419   31.1221  -69.4951 H         1 UNK         0.1032 
     83 H83       -71.9037   30.3360  -70.5872 H         1 UNK         0.0461 
     84 H84       -72.8403   27.5091  -67.8939 H         1 UNK         0.3453 
     85 H85       -73.6057   27.5866  -69.4615 H         1 UNK         0.3453 
     86 H86       -74.5516   29.3982  -71.3307 H         1 UNK         0.2984 
     87 H87       -73.7993   26.5915  -72.7689 H         1 UNK         0.0554 
     88 H88       -75.7571   27.9520  -72.0558 H         1 UNK         0.0847 
     89 H89       -75.9058   27.4428  -73.7168 H         1 UNK         0.0847 
     90 H90       -75.4541   29.1046  -73.3575 H         1 UNK         0.0847 
     91 H91       -73.3051   28.7513  -74.7854 H         1 UNK         0.3141 
     92 H92       -72.6648   28.1721  -76.8419 H         1 UNK         0.0743 
     93 H93       -70.3696   28.0916  -75.7403 H         1 UNK         0.0784 
     94 H94       -70.1899   26.4252  -76.2712 H         1 UNK         0.0784 
     95 H95       -70.2837   27.7298  -77.4530 H         1 UNK         0.0784 
     96 H96       -73.1661   25.4370  -77.0289 H         1 UNK         0.3213 
     97 H97       -72.7618   25.0486  -80.5925 H         1 UNK         0.0855 
     98 H98       -72.8546   23.4521  -77.9697 H         1 UNK         0.0814 
     99 H99       -71.4438   23.6155  -79.0088 H         1 UNK         0.0814 
    100 H100      -72.8797   22.7976  -79.6024 H         1 UNK         0.0814 
    101 H101      -74.8913   24.9263  -78.4871 H         1 UNK         0.3105 
    102 H102      -77.2754   26.2644  -80.6891 H         1 UNK         0.0547 
    103 H103      -78.7047   24.3189  -80.0475 H         1 UNK         0.0837 
    104 H104      -77.5726   23.8727  -81.3144 H         1 UNK         0.0837 
    105 H105      -77.2678   23.3747  -79.6565 H         1 UNK         0.0837 
    106 H106      -77.3855   25.2247  -78.0028 H         1 UNK         0.3020 
    107 H107      -75.5335   27.4854  -76.3730 H         1 UNK         0.1245 
    108 H108      -77.6994   28.2470  -75.0449 H         1 UNK         0.0781 
    109 H109      -78.4150   28.4274  -76.6214 H         1 UNK         0.0781 
    110 H110      -78.8294   30.8000  -75.6031 H         1 UNK         0.0836 
    111 H111      -77.6871   32.1085  -75.7255 H         1 UNK         0.0836 
    112 H112      -77.6742   25.9487  -75.3205 H         1 UNK         0.3022 
    113 H113      -75.7442   22.8886  -75.2690 H         1 UNK         0.0747 
    114 H114      -76.1070   23.2349  -72.8278 H         1 UNK         0.0793 
    115 H115      -74.8383   24.2832  -73.4475 H         1 UNK         0.0793 
    116 H116      -76.4300   24.9429  -73.1135 H         1 UNK         0.0793 
    117 H117      -78.2860   23.5278  -74.1295 H         1 UNK         0.3047 
    118 H118      -80.1434   21.9608  -76.8090 H         1 UNK         0.0822 
    119 H119      -79.2778   20.2649  -75.2087 H         1 UNK         0.0807 
    120 H120      -80.9126   20.7492  -74.7896 H         1 UNK         0.0807 
    121 H121      -79.5453   21.3601  -73.8609 H         1 UNK         0.0807 
    122 H122      -80.7075   23.4999  -74.3635 H         1 UNK         0.2946 
    123 H123      -81.6869   26.3966  -76.0633 H         1 UNK         0.1144 
    124 H124      -83.9573   26.0694  -75.1102 H         1 UNK         0.0793 
    125 H125      -83.6528   24.3434  -74.9043 H         1 UNK         0.0793 
    126 H126      -83.7428   25.0407  -76.5157 H         1 UNK         0.0793 
    127 H127      -82.1518   25.6356  -73.3728 H         1 UNK         0.2896 
@<TRIPOS>BOND
     1    1    2 1    
     2    1   67 1    
     3    1   68 1    
     4    1   69 1    
     5    2    3 2    
     6    2    4 am   BACKBONE|DICT|INTERRES
     7    4    5 1    
     8    4   70 1    
     9    5    6 1    
    10    5   65 1    
    11    5   71 1    
    12    6    7 1    
    13    6   72 1    
    14    6   73 1    
    15    7    8 1    
    16    8    9 1    
    17    8   74 1    
    18    8   75 1    
    19    9   10 ar   
    20    9   14 ar   
    21   10   11 ar   
    22   10   76 1    
    23   11   12 ar   
    24   11   48 1    
    25   12   13 ar   
    26   12   77 1    
    27   13   14 ar   
    28   13   15 1    
    29   14   78 1    
    30   15   16 1    
    31   15   79 1    
    32   15   80 1    
    33   16   17 1    
    34   17   18 1    
    35   17   81 1    
    36   17   82 1    
    37   18   19 1    
    38   18   22 1    
    39   18   83 1    
    40   19   20 am   BACKBONE|DICT|INTERRES
    41   19   21 2    
    42   20   84 1    
    43   20   85 1    
    44   22   23 am   BACKBONE|DICT|INTERRES
    45   22   86 1    
    46   23   24 2    
    47   23   25 1    
    48   25   26 1    
    49   25   27 1    
    50   25   87 1    
    51   26   88 1    
    52   26   89 1    
    53   26   90 1    
    54   27   28 am   BACKBONE|DICT|INTERRES
    55   27   91 1    
    56   28   29 2    
    57   28   30 1    
    58   30   31 1    
    59   30   32 1    
    60   30   92 1    
    61   31   93 1    
    62   31   94 1    
    63   31   95 1    
    64   32   33 am   BACKBONE|DICT|INTERRES
    65   32   96 1    
    66   33   34 2    
    67   33   35 1    
    68   35   36 1    
    69   35   37 1    
    70   35   97 1    
    71   36   98 1    
    72   36   99 1    
    73   36  100 1    
    74   37   38 am   BACKBONE|DICT|INTERRES
    75   37  101 1    
    76   38   39 2    
    77   38   40 1    
    78   40   41 1    
    79   40   42 1    
    80   40  102 1    
    81   41  103 1    
    82   41  104 1    
    83   41  105 1    
    84   42   43 am   BACKBONE|DICT|INTERRES
    85   42  106 1    
    86   43   44 2    
    87   43   45 1    
    88   45   46 1    
    89   45   49 1    
    90   45  107 1    
    91   46   47 1    
    92   46  108 1    
    93   46  109 1    
    94   47   48 1    
    95   48  110 1    
    96   48  111 1    
    97   49   50 am   BACKBONE|DICT|INTERRES
    98   49  112 1    
    99   50   51 2    
   100   50   52 1    
   101   52   53 1    
   102   52   54 1    
   103   52  113 1    
   104   53  114 1    
   105   53  115 1    
   106   53  116 1    
   107   54   55 am   BACKBONE|DICT|INTERRES
   108   54  117 1    
   109   55   56 2    
   110   55   57 1    
   111   57   58 1    
   112   57   59 1    
   113   57  118 1    
   114   58  119 1    
   115   58  120 1    
   116   58  121 1    
   117   59   60 am   BACKBONE|DICT|INTERRES
   118   59  122 1    
   119   60   61 2    
   120   60   62 1    
   121   62   63 1    
   122   62   64 1    
   123   62  123 1    
   124   63  124 1    
   125   63  125 1    
   126   63  126 1    
   127   64   65 am   BACKBONE|DICT|INTERRES
   128   64  127 1    
   129   65   66 2    
@<TRIPOS>SUBSTRUCTURE
     1 UNK         1 GROUP             0       ****    0 ROOT    
