@<TRIPOS>MOLECULE
3R135
127   129    1
SMALL
USER_CHARGES


@<TRIPOS>ATOM
      1 CA        -83.4400   29.1951  -78.3613 C.3       0 UNK        -0.1998 
      2 C         -84.3590   29.0129  -77.1556 C.2       0 UNK         0.4909 
      3 O         -85.5772   29.0491  -77.3182 O.2       0 UNK        -0.5240 
      4 N         -83.8428   28.8234  -75.9315 N.am      1 UNK        -0.4739 
      5 CA        -82.4233   28.7004  -75.5676 C.3       1 UNK         0.0864 
      6 C6        -82.2403   28.8498  -74.0355 C.3       11 UNK        -0.0881 
      7 S7        -80.5432   29.3229  -73.5609 S.3       11 UNK        -0.2682 
      8 C8        -80.2977   28.2832  -72.0810 C.3       11 UNK         0.0289 
      9 C9        -78.8790   28.3105  -71.5105 C.ar      11 UNK        -0.0687 
     10 C10       -78.3788   27.1596  -70.8936 C.ar      11 UNK        -0.0823 
     11 C11       -77.0963   27.1422  -70.3386 C.ar      11 UNK        -0.0830 
     12 C12       -76.3072   28.2923  -70.3936 C.ar      11 UNK        -0.1021 
     13 C13       -76.7884   29.4521  -71.0069 C.ar      11 UNK        -0.0753 
     14 C14       -78.0745   29.4573  -71.5584 C.ar      11 UNK        -0.0933 
     15 C15       -75.9289   30.7075  -71.0508 C.3       11 UNK         0.0166 
     16 S16       -74.7724   30.6903  -72.4562 S.3       11 UNK        -0.2615 
     17 C17       -73.4904   29.5314  -71.8613 C.3       11 UNK        -0.0865 
     18 CA        -72.1422   29.6828  -72.6155 C.3       10 UNK         0.0862 
     19 C         -71.0316   28.7734  -72.0111 C.2       10 UNK         0.5551 
     20 N         -70.2636   28.0326  -72.8032 N.am      10 UNK        -0.7319 
     21 O         -70.8503   28.7502  -70.7962 O.2       10 UNK        -0.5018 
     22 N         -72.3133   29.4944  -74.0628 N.am      10 UNK        -0.4509 
     23 C         -71.7177   30.2265  -75.0098 C.2       10 UNK         0.4899 
     24 O         -70.9758   31.1819  -74.7734 O.2       10 UNK        -0.4839 
     25 CA        -72.0054   29.8193  -76.4671 C.3       9 UNK         0.0222 
     26 CB        -71.0246   30.4540  -77.4765 C.3       9 UNK        -0.1966 
     27 N         -72.0847   28.3664  -76.6624 N.am      9 UNK        -0.4218 
     28 C         -71.1173   27.4591  -76.4509 C.2       9 UNK         0.5020 
     29 O         -70.0125   27.7484  -75.9882 O.2       9 UNK        -0.5274 
     30 CA        -71.4122   25.9806  -76.7907 C.3       8 UNK         0.0270 
     31 CB        -70.9631   25.0490  -75.6505 C.3       8 UNK        -0.1976 
     32 N         -72.8191   25.7088  -77.0976 N.am      8 UNK        -0.4313 
     33 C         -73.4376   25.9765  -78.2553 C.2       8 UNK         0.5041 
     34 O         -72.8623   26.4067  -79.2551 O.2       8 UNK        -0.5577 
     35 CA        -74.9678   25.8007  -78.2781 C.3       7 UNK         0.0284 
     36 CB        -75.3497   24.3690  -78.6845 C.3       7 UNK        -0.1958 
     37 N         -75.6015   26.1389  -76.9977 N.am      7 UNK        -0.4454 
     38 C         -75.5727   27.3537  -76.4280 C.2       7 UNK         0.5089 
     39 O         -75.0546   28.3399  -76.9512 O.2       7 UNK        -0.5125 
     40 CA        -76.1632   27.4755  -75.0143 C.3       6 UNK         0.0408 
     41 CB        -77.6891   27.5953  -75.0707 C.3       6 UNK        -0.1791 
     42 N         -75.7825   26.3505  -74.1575 N.am      6 UNK        -0.4762 
     43 C         -74.5350   26.1339  -73.7185 C.2       6 UNK         0.5007 
     44 O         -73.5906   26.8845  -73.9629 O.2       6 UNK        -0.5032 
     45 CA        -74.2775   24.8329  -72.9325 C.3       5 UNK         0.0783 
     46 C46       -74.5163   24.9944  -71.4047 C.3       11 UNK        -0.0857 
     47 S47       -76.2091   24.5717  -70.8495 S.3       11 UNK        -0.2512 
     48 C48       -76.5839   25.8869  -69.6522 C.3       11 UNK         0.0225 
     49 N         -75.0032   23.6919  -73.4976 N.am      5 UNK        -0.4615 
     50 C         -74.8123   23.1724  -74.7150 C.2       4 UNK         0.5053 
     51 O         -73.9365   23.5513  -75.4898 O.2       4 UNK        -0.5105 
     52 CA        -75.8038   22.0823  -75.1550 C.3       4 UNK         0.0263 
     53 CB        -75.3621   20.7063  -74.6323 C.3       4 UNK        -0.1981 
     54 N         -77.1809   22.3579  -74.7254 N.am      4 UNK        -0.4224 
     55 C         -77.9069   23.3998  -75.1527 C.2       3 UNK         0.4895 
     56 O         -77.4948   24.2368  -75.9593 O.2       3 UNK        -0.5091 
     57 CA        -79.3051   23.5632  -74.5494 C.3       3 UNK         0.0250 
     58 CB        -79.2408   24.3417  -73.2220 C.3       3 UNK        -0.1996 
     59 N         -80.1454   24.2763  -75.5076 N.am      3 UNK        -0.4254 
     60 C         -81.4808   24.2331  -75.5474 C.2       2 UNK         0.5004 
     61 O         -82.1732   23.6275  -74.7264 O.2       2 UNK        -0.5226 
     62 CA        -82.1630   25.0134  -76.6824 C.3       2 UNK         0.0269 
     63 CB        -83.3846   24.2621  -77.2423 C.3       2 UNK        -0.1926 
     64 N         -82.5918   26.3257  -76.2018 N.am      2 UNK        -0.4687 
     65 C         -81.7908   27.3951  -76.1028 C.2       1 UNK         0.5165 
     66 O         -80.6159   27.3913  -76.4671 O.2       1 UNK        -0.5079 
     67 H67       -82.9844   28.2476  -78.6471 H         1 UNK         0.0900 
     68 H68       -84.0077   29.5593  -79.2174 H         1 UNK         0.0900 
     69 H69       -82.6532   29.9213  -78.1627 H         1 UNK         0.0900 
     70 H70       -84.4899   28.7233  -75.1621 H         1 UNK         0.2959 
     71 H71       -81.8931   29.5292  -76.0406 H         1 UNK         0.1079 
     72 H72       -82.8938   29.6382  -73.6579 H         1 UNK         0.0837 
     73 H73       -82.5462   27.9394  -73.5162 H         1 UNK         0.0837 
     74 H74       -80.9935   28.6024  -71.3041 H         1 UNK         0.0685 
     75 H75       -80.5646   27.2574  -72.3407 H         1 UNK         0.0685 
     76 H76       -78.9903   26.2693  -70.8385 H         1 UNK         0.1434 
     77 H77       -75.3206   28.2881  -69.9520 H         1 UNK         0.1329 
     78 H78       -78.4477   30.3602  -72.0209 H         1 UNK         0.1335 
     79 H79       -75.3791   30.8245  -70.1157 H         1 UNK         0.0680 
     80 H80       -76.5650   31.5898  -71.1373 H         1 UNK         0.0680 
     81 H81       -73.3412   29.7050  -70.7941 H         1 UNK         0.1032 
     82 H82       -73.8698   28.5143  -71.9543 H         1 UNK         0.1032 
     83 H83       -71.7993   30.7030  -72.4348 H         1 UNK         0.0461 
     84 H84       -69.5454   27.4571  -72.3940 H         1 UNK         0.3453 
     85 H85       -70.3751   28.0627  -73.8079 H         1 UNK         0.3453 
     86 H86       -72.8620   28.6811  -74.3256 H         1 UNK         0.2984 
     87 H87       -72.9998   30.2062  -76.6928 H         1 UNK         0.0554 
     88 H88       -71.0638   31.5429  -77.4290 H         1 UNK         0.0847 
     89 H89       -71.2677   30.1674  -78.4996 H         1 UNK         0.0847 
     90 H90       -69.9936   30.1577  -77.2806 H         1 UNK         0.0847 
     91 H91       -72.9879   28.0348  -76.9827 H         1 UNK         0.3141 
     92 H92       -70.8185   25.7373  -77.6741 H         1 UNK         0.0743 
     93 H93       -69.8927   25.1421  -75.4629 H         1 UNK         0.0784 
     94 H94       -71.4777   25.2801  -74.7179 H         1 UNK         0.0784 
     95 H95       -71.1569   24.0035  -75.8910 H         1 UNK         0.0784 
     96 H96       -73.3631   25.2733  -76.3585 H         1 UNK         0.3213 
     97 H97       -75.3659   26.4854  -79.0299 H         1 UNK         0.0855 
     98 H98       -74.9655   23.6321  -77.9797 H         1 UNK         0.0814 
     99 H99       -74.9435   24.1223  -79.6663 H         1 UNK         0.0814 
    100 H100      -76.4316   24.2466  -78.7399 H         1 UNK         0.0814 
    101 H101      -76.1093   25.3951  -76.5237 H         1 UNK         0.3105 
    102 H102      -75.7720   28.3892  -74.5608 H         1 UNK         0.0547 
    103 H103      -78.1115   27.6810  -74.0727 H         1 UNK         0.0837 
    104 H104      -77.9921   28.4829  -75.6273 H         1 UNK         0.0837 
    105 H105      -78.1520   26.7368  -75.5552 H         1 UNK         0.0837 
    106 H106      -76.4966   25.6713  -73.9427 H         1 UNK         0.3020 
    107 H107      -73.2141   24.6215  -73.0669 H         1 UNK         0.1245 
    108 H108      -74.2478   25.9972  -71.0659 H         1 UNK         0.0781 
    109 H109      -73.8407   24.3240  -70.8715 H         1 UNK         0.0781 
    110 H110      -75.7033   26.0965  -69.0429 H         1 UNK         0.0836 
    111 H111      -77.3476   25.5235  -68.9630 H         1 UNK         0.0836 
    112 H112      -75.7447   23.3233  -72.9194 H         1 UNK         0.3022 
    113 H113      -75.7948   22.0501  -76.2465 H         1 UNK         0.0747 
    114 H114      -76.0076   19.9128  -75.0093 H         1 UNK         0.0793 
    115 H115      -74.3459   20.4753  -74.9556 H         1 UNK         0.0793 
    116 H116      -75.3753   20.6618  -73.5425 H         1 UNK         0.0793 
    117 H117      -77.5874   21.7160  -74.0595 H         1 UNK         0.3047 
    118 H118      -79.7267   22.5709  -74.3742 H         1 UNK         0.0822 
    119 H119      -78.6319   23.8147  -72.4874 H         1 UNK         0.0807 
    120 H120      -80.2313   24.4661  -72.7845 H         1 UNK         0.0807 
    121 H121      -78.8110   25.3346  -73.3566 H         1 UNK         0.0807 
    122 H122      -79.6308   24.7982  -76.2073 H         1 UNK         0.2946 
    123 H123      -81.4485   25.1393  -77.4998 H         1 UNK         0.1144 
    124 H124      -83.8227   24.7941  -78.0870 H         1 UNK         0.0793 
    125 H125      -84.1636   24.1306  -76.4901 H         1 UNK         0.0793 
    126 H126      -83.1023   23.2696  -77.5960 H         1 UNK         0.0793 
    127 H127      -83.5448   26.4032  -75.8761 H         1 UNK         0.2896 
@<TRIPOS>BOND
     1    1    2 1    
     2    1   67 1    
     3    1   68 1    
     4    1   69 1    
     5    2    3 2    
     6    2    4 am   BACKBONE|DICT|INTERRES
     7    4    5 1    
     8    4   70 1    
     9    5    6 1    
    10    5   65 1    
    11    5   71 1    
    12    6    7 1    
    13    6   72 1    
    14    6   73 1    
    15    7    8 1    
    16    8    9 1    
    17    8   74 1    
    18    8   75 1    
    19    9   10 ar   
    20    9   14 ar   
    21   10   11 ar   
    22   10   76 1    
    23   11   12 ar   
    24   11   48 1    
    25   12   13 ar   
    26   12   77 1    
    27   13   14 ar   
    28   13   15 1    
    29   14   78 1    
    30   15   16 1    
    31   15   79 1    
    32   15   80 1    
    33   16   17 1    
    34   17   18 1    
    35   17   81 1    
    36   17   82 1    
    37   18   19 1    
    38   18   22 1    
    39   18   83 1    
    40   19   20 am   BACKBONE|DICT|INTERRES
    41   19   21 2    
    42   20   84 1    
    43   20   85 1    
    44   22   23 am   BACKBONE|DICT|INTERRES
    45   22   86 1    
    46   23   24 2    
    47   23   25 1    
    48   25   26 1    
    49   25   27 1    
    50   25   87 1    
    51   26   88 1    
    52   26   89 1    
    53   26   90 1    
    54   27   28 am   BACKBONE|DICT|INTERRES
    55   27   91 1    
    56   28   29 2    
    57   28   30 1    
    58   30   31 1    
    59   30   32 1    
    60   30   92 1    
    61   31   93 1    
    62   31   94 1    
    63   31   95 1    
    64   32   33 am   BACKBONE|DICT|INTERRES
    65   32   96 1    
    66   33   34 2    
    67   33   35 1    
    68   35   36 1    
    69   35   37 1    
    70   35   97 1    
    71   36   98 1    
    72   36   99 1    
    73   36  100 1    
    74   37   38 am   BACKBONE|DICT|INTERRES
    75   37  101 1    
    76   38   39 2    
    77   38   40 1    
    78   40   41 1    
    79   40   42 1    
    80   40  102 1    
    81   41  103 1    
    82   41  104 1    
    83   41  105 1    
    84   42   43 am   BACKBONE|DICT|INTERRES
    85   42  106 1    
    86   43   44 2    
    87   43   45 1    
    88   45   46 1    
    89   45   49 1    
    90   45  107 1    
    91   46   47 1    
    92   46  108 1    
    93   46  109 1    
    94   47   48 1    
    95   48  110 1    
    96   48  111 1    
    97   49   50 am   BACKBONE|DICT|INTERRES
    98   49  112 1    
    99   50   51 2    
   100   50   52 1    
   101   52   53 1    
   102   52   54 1    
   103   52  113 1    
   104   53  114 1    
   105   53  115 1    
   106   53  116 1    
   107   54   55 am   BACKBONE|DICT|INTERRES
   108   54  117 1    
   109   55   56 2    
   110   55   57 1    
   111   57   58 1    
   112   57   59 1    
   113   57  118 1    
   114   58  119 1    
   115   58  120 1    
   116   58  121 1    
   117   59   60 am   BACKBONE|DICT|INTERRES
   118   59  122 1    
   119   60   61 2    
   120   60   62 1    
   121   62   63 1    
   122   62   64 1    
   123   62  123 1    
   124   63  124 1    
   125   63  125 1    
   126   63  126 1    
   127   64   65 am   BACKBONE|DICT|INTERRES
   128   64  127 1    
   129   65   66 2    
@<TRIPOS>SUBSTRUCTURE
     1 UNK         1 GROUP             0       ****    0 ROOT    
