@<TRIPOS>MOLECULE
3R135
127   129    1
SMALL
USER_CHARGES


@<TRIPOS>ATOM
      1 CA        -83.8297   27.0638  -74.7120 C.3       0 UNK        -0.1998 
      2 C         -82.3205   26.8894  -74.7743 C.2       0 UNK         0.4909 
      3 O         -81.8417   25.7554  -74.7161 O.2       0 UNK        -0.5240 
      4 N         -81.5787   28.0023  -74.9103 N.am      1 UNK        -0.4739 
      5 CA        -80.1061   28.1067  -74.9566 C.3       1 UNK         0.0864 
      6 C6        -79.4271   28.3086  -73.5694 C.3       11 UNK        -0.0881 
      7 S7        -80.0757   27.3025  -72.1908 S.3       11 UNK        -0.2682 
      8 C8        -79.3980   28.1879  -70.7538 C.3       11 UNK         0.0289 
      9 C9        -77.8820   28.1032  -70.7384 C.ar      11 UNK        -0.0687 
     10 C10       -77.2576   26.9055  -70.3879 C.ar      11 UNK        -0.0823 
     11 C11       -75.8668   26.7808  -70.4554 C.ar      11 UNK        -0.0830 
     12 C12       -75.0969   27.8850  -70.8392 C.ar      11 UNK        -0.1021 
     13 C13       -75.7127   29.0995  -71.1606 C.ar      11 UNK        -0.0753 
     14 C14       -77.1053   29.2017  -71.1128 C.ar      11 UNK        -0.0933 
     15 C15       -74.8841   30.3108  -71.5513 C.3       11 UNK         0.0166 
     16 S16       -74.7248   30.4542  -73.3586 S.3       11 UNK        -0.2615 
     17 C17       -74.1389   32.1834  -73.5113 C.3       11 UNK        -0.0865 
     18 CA        -72.5966   32.3336  -73.5902 C.3       10 UNK         0.0862 
     19 C         -71.9191   32.1245  -72.2019 C.2       10 UNK         0.5551 
     20 N         -71.1525   31.0612  -71.9829 N.am      10 UNK        -0.7319 
     21 O         -72.0930   32.9500  -71.3088 O.2       10 UNK        -0.5018 
     22 N         -72.0425   31.5209  -74.6787 N.am      10 UNK        -0.4509 
     23 C         -70.8072   31.6321  -75.1801 C.2       10 UNK         0.4899 
     24 O         -70.0419   32.5586  -74.9073 O.2       10 UNK        -0.4839 
     25 CA        -70.3487   30.5149  -76.1410 C.3       9 UNK         0.0222 
     26 CB        -68.8330   30.2440  -76.0353 C.3       9 UNK        -0.1966 
     27 N         -71.1018   29.2579  -76.0080 N.am      9 UNK        -0.4218 
     28 C         -71.2397   28.4797  -74.9250 C.2       9 UNK         0.5020 
     29 O         -70.7706   28.7611  -73.8196 O.2       9 UNK        -0.5274 
     30 CA        -72.0540   27.1813  -75.1145 C.3       8 UNK         0.0270 
     31 CB        -72.0220   26.2862  -73.8607 C.3       8 UNK        -0.1976 
     32 N         -73.4558   27.3927  -75.4974 N.am      8 UNK        -0.4313 
     33 C         -73.9103   27.9007  -76.6514 C.2       8 UNK         0.5041 
     34 O         -73.1815   28.3441  -77.5426 O.2       8 UNK        -0.5577 
     35 CA        -75.4380   27.8496  -76.8498 C.3       7 UNK         0.0284 
     36 CB        -75.9161   28.6609  -78.0718 C.3       7 UNK        -0.1958 
     37 N         -75.9306   26.4681  -76.9286 N.am      7 UNK        -0.4454 
     38 C         -75.5268   25.4971  -77.7677 C.2       7 UNK         0.5089 
     39 O         -74.6970   25.6541  -78.6643 O.2       7 UNK        -0.5125 
     40 CA        -76.1777   24.1112  -77.5732 C.3       6 UNK         0.0408 
     41 CB        -75.3552   22.9640  -78.1993 C.3       6 UNK        -0.1791 
     42 N         -76.5100   23.8227  -76.1714 N.am      6 UNK        -0.4762 
     43 C         -75.6408   23.7176  -75.1538 C.2       6 UNK         0.5007 
     44 O         -74.4211   23.8105  -75.2940 O.2       6 UNK        -0.5032 
     45 CA        -76.2094   23.4825  -73.7424 C.3       5 UNK         0.0783 
     46 C46       -75.6375   24.5179  -72.7407 C.3       11 UNK        -0.0857 
     47 S47       -75.9595   24.0460  -71.0108 S.3       11 UNK        -0.2512 
     48 C48       -75.2005   25.4503  -70.1252 C.3       11 UNK         0.0225 
     49 N         -77.6814   23.4735  -73.7381 N.am      5 UNK        -0.4615 
     50 C         -78.4247   22.4034  -73.4244 C.2       4 UNK         0.5053 
     51 O         -77.9621   21.2843  -73.1950 O.2       4 UNK        -0.5105 
     52 CA        -79.9434   22.6181  -73.3348 C.3       4 UNK         0.0263 
     53 CB        -80.3011   23.5413  -72.1608 C.3       4 UNK        -0.1981 
     54 N         -80.5238   23.1364  -74.5760 N.am      4 UNK        -0.4224 
     55 C         -80.7237   22.3868  -75.6708 C.2       3 UNK         0.4895 
     56 O         -80.3682   21.2123  -75.7730 O.2       3 UNK        -0.5091 
     57 CA        -81.4598   23.0434  -76.8458 C.3       3 UNK         0.0250 
     58 CB        -82.9724   23.1148  -76.5731 C.3       3 UNK        -0.1996 
     59 N         -80.9396   24.3837  -77.1133 N.am      3 UNK        -0.4254 
     60 C         -80.0212   24.6578  -78.0491 C.2       2 UNK         0.5004 
     61 O         -79.5564   23.8090  -78.8100 O.2       2 UNK        -0.5226 
     62 CA        -79.5371   26.1129  -78.1915 C.3       2 UNK         0.0269 
     63 CB        -80.0026   26.7075  -79.5311 C.3       2 UNK        -0.1926 
     64 N         -79.9734   26.9966  -77.1115 N.am      2 UNK        -0.4687 
     65 C         -79.4350   27.0670  -75.8859 C.2       1 UNK         0.5165 
     66 O         -78.4950   26.3615  -75.5052 O.2       1 UNK        -0.5079 
     67 H67       -84.3037   26.5173  -75.5268 H         1 UNK         0.0900 
     68 H68       -84.1245   28.1104  -74.7863 H         1 UNK         0.0900 
     69 H69       -84.2107   26.6696  -73.7703 H         1 UNK         0.0900 
     70 H70       -82.0614   28.8886  -74.9620 H         1 UNK         0.2959 
     71 H71       -79.9256   29.0431  -75.4882 H         1 UNK         0.1079 
     72 H72       -78.3467   28.1639  -73.6330 H         1 UNK         0.0837 
     73 H73       -79.5539   29.3527  -73.2796 H         1 UNK         0.0837 
     74 H74       -79.7349   29.2257  -70.7687 H         1 UNK         0.0685 
     75 H75       -79.7986   27.7452  -69.8407 H         1 UNK         0.0685 
     76 H76       -77.8618   26.0544  -70.1037 H         1 UNK         0.1434 
     77 H77       -74.0196   27.8028  -70.8897 H         1 UNK         0.1329 
     78 H78       -77.5837   30.1331  -71.3836 H         1 UNK         0.1335 
     79 H79       -75.3489   31.2115  -71.1466 H         1 UNK         0.0680 
     80 H80       -73.8924   30.2469  -71.1014 H         1 UNK         0.0680 
     81 H81       -74.5488   32.7942  -72.7045 H         1 UNK         0.1032 
     82 H82       -74.5794   32.5924  -74.4221 H         1 UNK         0.1032 
     83 H83       -72.3972   33.3748  -73.8521 H         1 UNK         0.0461 
     84 H84       -70.7170   30.9450  -71.0822 H         1 UNK         0.3453 
     85 H85       -71.0230   30.3539  -72.7006 H         1 UNK         0.3453 
     86 H86       -72.5942   30.7181  -74.9429 H         1 UNK         0.2984 
     87 H87       -70.5516   30.8820  -77.1482 H         1 UNK         0.0554 
     88 H88       -68.5182   29.4682  -76.7337 H         1 UNK         0.0847 
     89 H89       -68.5492   29.9267  -75.0309 H         1 UNK         0.0847 
     90 H90       -68.2552   31.1391  -76.2687 H         1 UNK         0.0847 
     91 H91       -71.6416   28.9723  -76.8265 H         1 UNK         0.3141 
     92 H92       -71.5730   26.6278  -75.9237 H         1 UNK         0.0743 
     93 H93       -72.5385   26.7504  -73.0193 H         1 UNK         0.0784 
     94 H94       -72.4874   25.3195  -74.0521 H         1 UNK         0.0784 
     95 H95       -70.9966   26.0878  -73.5455 H         1 UNK         0.0784 
     96 H96       -74.1402   27.0617  -74.8337 H         1 UNK         0.3213 
     97 H97       -75.8887   28.2968  -75.9618 H         1 UNK         0.0855 
     98 H98       -75.6050   29.7033  -77.9915 H         1 UNK         0.0814 
     99 H99       -77.0031   28.6509  -78.1530 H         1 UNK         0.0814 
    100 H100      -75.5068   28.2713  -79.0046 H         1 UNK         0.0814 
    101 H101      -76.6576   26.2301  -76.2593 H         1 UNK         0.3105 
    102 H102      -77.1210   24.1462  -78.1111 H         1 UNK         0.0547 
    103 H103      -75.2509   23.1021  -79.2761 H         1 UNK         0.0837 
    104 H104      -74.3490   22.9081  -77.7831 H         1 UNK         0.0837 
    105 H105      -75.8379   21.9992  -78.0448 H         1 UNK         0.0837 
    106 H106      -77.4933   23.7344  -75.9557 H         1 UNK         0.3020 
    107 H107      -75.8264   22.5013  -73.4521 H         1 UNK         0.1245 
    108 H108      -76.0585   25.5066  -72.9337 H         1 UNK         0.0781 
    109 H109      -74.5554   24.6170  -72.8432 H         1 UNK         0.0781 
    110 H110      -74.1350   25.4795  -70.3591 H         1 UNK         0.0836 
    111 H111      -75.2772   25.2745  -69.0515 H         1 UNK         0.0836 
    112 H112      -78.1386   24.3603  -73.9101 H         1 UNK         0.3022 
    113 H113      -80.4012   21.6471  -73.1322 H         1 UNK         0.0747 
    114 H114      -81.3788   23.6834  -72.0761 H         1 UNK         0.0793 
    115 H115      -79.9502   23.1239  -71.2159 H         1 UNK         0.0793 
    116 H116      -79.8413   24.5213  -72.2705 H         1 UNK         0.0793 
    117 H117      -80.8771   24.0909  -74.5629 H         1 UNK         0.3047 
    118 H118      -81.3186   22.4065  -77.7222 H         1 UNK         0.0822 
    119 H119      -83.5055   23.5531  -77.4169 H         1 UNK         0.0807 
    120 H120      -83.2044   23.7070  -75.6877 H         1 UNK         0.0807 
    121 H121      -83.3845   22.1178  -76.4124 H         1 UNK         0.0807 
    122 H122      -81.2410   25.1189  -76.4815 H         1 UNK         0.2946 
    123 H123      -78.4475   26.0941  -78.1975 H         1 UNK         0.1144 
    124 H124      -79.6586   26.1010  -80.3703 H         1 UNK         0.0793 
    125 H125      -79.6058   27.7123  -79.6788 H         1 UNK         0.0793 
    126 H126      -81.0903   26.7618  -79.5929 H         1 UNK         0.0793 
    127 H127      -80.7621   27.5945  -77.3153 H         1 UNK         0.2896 
@<TRIPOS>BOND
     1    1    2 1    
     2    1   67 1    
     3    1   68 1    
     4    1   69 1    
     5    2    3 2    
     6    2    4 am   BACKBONE|DICT|INTERRES
     7    4    5 1    
     8    4   70 1    
     9    5    6 1    
    10    5   65 1    
    11    5   71 1    
    12    6    7 1    
    13    6   72 1    
    14    6   73 1    
    15    7    8 1    
    16    8    9 1    
    17    8   74 1    
    18    8   75 1    
    19    9   10 ar   
    20    9   14 ar   
    21   10   11 ar   
    22   10   76 1    
    23   11   12 ar   
    24   11   48 1    
    25   12   13 ar   
    26   12   77 1    
    27   13   14 ar   
    28   13   15 1    
    29   14   78 1    
    30   15   16 1    
    31   15   79 1    
    32   15   80 1    
    33   16   17 1    
    34   17   18 1    
    35   17   81 1    
    36   17   82 1    
    37   18   19 1    
    38   18   22 1    
    39   18   83 1    
    40   19   20 am   BACKBONE|DICT|INTERRES
    41   19   21 2    
    42   20   84 1    
    43   20   85 1    
    44   22   23 am   BACKBONE|DICT|INTERRES
    45   22   86 1    
    46   23   24 2    
    47   23   25 1    
    48   25   26 1    
    49   25   27 1    
    50   25   87 1    
    51   26   88 1    
    52   26   89 1    
    53   26   90 1    
    54   27   28 am   BACKBONE|DICT|INTERRES
    55   27   91 1    
    56   28   29 2    
    57   28   30 1    
    58   30   31 1    
    59   30   32 1    
    60   30   92 1    
    61   31   93 1    
    62   31   94 1    
    63   31   95 1    
    64   32   33 am   BACKBONE|DICT|INTERRES
    65   32   96 1    
    66   33   34 2    
    67   33   35 1    
    68   35   36 1    
    69   35   37 1    
    70   35   97 1    
    71   36   98 1    
    72   36   99 1    
    73   36  100 1    
    74   37   38 am   BACKBONE|DICT|INTERRES
    75   37  101 1    
    76   38   39 2    
    77   38   40 1    
    78   40   41 1    
    79   40   42 1    
    80   40  102 1    
    81   41  103 1    
    82   41  104 1    
    83   41  105 1    
    84   42   43 am   BACKBONE|DICT|INTERRES
    85   42  106 1    
    86   43   44 2    
    87   43   45 1    
    88   45   46 1    
    89   45   49 1    
    90   45  107 1    
    91   46   47 1    
    92   46  108 1    
    93   46  109 1    
    94   47   48 1    
    95   48  110 1    
    96   48  111 1    
    97   49   50 am   BACKBONE|DICT|INTERRES
    98   49  112 1    
    99   50   51 2    
   100   50   52 1    
   101   52   53 1    
   102   52   54 1    
   103   52  113 1    
   104   53  114 1    
   105   53  115 1    
   106   53  116 1    
   107   54   55 am   BACKBONE|DICT|INTERRES
   108   54  117 1    
   109   55   56 2    
   110   55   57 1    
   111   57   58 1    
   112   57   59 1    
   113   57  118 1    
   114   58  119 1    
   115   58  120 1    
   116   58  121 1    
   117   59   60 am   BACKBONE|DICT|INTERRES
   118   59  122 1    
   119   60   61 2    
   120   60   62 1    
   121   62   63 1    
   122   62   64 1    
   123   62  123 1    
   124   63  124 1    
   125   63  125 1    
   126   63  126 1    
   127   64   65 am   BACKBONE|DICT|INTERRES
   128   64  127 1    
   129   65   66 2    
@<TRIPOS>SUBSTRUCTURE
     1 UNK         1 GROUP             0       ****    0 ROOT    
