@<TRIPOS>MOLECULE
3R135
127   129    1
SMALL
USER_CHARGES


@<TRIPOS>ATOM
      1 CA        -83.7408   24.9409  -69.7434 C.3       0 UNK        -0.1998 
      2 C         -82.2290   25.1001  -69.6038 C.2       0 UNK         0.4909 
      3 O         -81.6360   24.4790  -68.7240 O.2       0 UNK        -0.5240 
      4 N         -81.5593   25.9135  -70.4333 N.am      1 UNK        -0.4739 
      5 CA        -82.1114   26.7003  -71.5481 C.3       1 UNK         0.0864 
      6 C6        -81.1660   27.8595  -71.9507 C.3       11 UNK        -0.0881 
      7 S7        -80.8488   29.0259  -70.5801 S.3       11 UNK        -0.2682 
      8 C8        -80.5629   30.5899  -71.4730 C.3       11 UNK         0.0289 
      9 C9        -79.2794   30.5422  -72.2894 C.ar      11 UNK        -0.0687 
     10 C10       -79.3160   30.1319  -73.6251 C.ar      11 UNK        -0.0823 
     11 C11       -78.1359   30.0110  -74.3621 C.ar      11 UNK        -0.0830 
     12 C12       -76.9199   30.3716  -73.7776 C.ar      11 UNK        -0.1021 
     13 C13       -76.8684   30.7856  -72.4439 C.ar      11 UNK        -0.0753 
     14 C14       -78.0521   30.8715  -71.7029 C.ar      11 UNK        -0.0933 
     15 C15       -75.5226   31.0986  -71.8091 C.3       11 UNK         0.0166 
     16 S16       -74.4956   29.5977  -71.7069 S.3       11 UNK        -0.2615 
     17 C17       -72.8723   30.2985  -71.2559 C.3       11 UNK        -0.0865 
     18 CA        -72.1173   30.9571  -72.4433 C.3       10 UNK         0.0862 
     19 C         -70.7109   31.4330  -71.9852 C.2       10 UNK         0.5551 
     20 N         -70.5787   32.6926  -71.5923 N.am      10 UNK        -0.7319 
     21 O         -69.7578   30.6585  -71.9335 O.2       10 UNK        -0.5018 
     22 N         -72.0843   30.0837  -73.6268 N.am      10 UNK        -0.4509 
     23 C         -71.6030   30.4145  -74.8323 C.2       10 UNK         0.4899 
     24 O         -71.1230   31.5185  -75.0948 O.2       10 UNK        -0.4839 
     25 CA        -71.7283   29.3628  -75.9547 C.3       9 UNK         0.0222 
     26 CB        -70.5685   29.4346  -76.9706 C.3       9 UNK        -0.1966 
     27 N         -71.9305   27.9861  -75.4865 N.am      9 UNK        -0.4218 
     28 C         -71.0778   27.2169  -74.7918 C.2       9 UNK         0.5020 
     29 O         -69.9740   27.5859  -74.3906 O.2       9 UNK        -0.5274 
     30 CA        -71.5389   25.7771  -74.5112 C.3       8 UNK         0.0270 
     31 CB        -72.5295   25.7365  -73.3345 C.3       8 UNK        -0.1976 
     32 N         -72.1422   25.1595  -75.6956 N.am      8 UNK        -0.4313 
     33 C         -71.4528   24.7457  -76.7695 C.2       8 UNK         0.5041 
     34 O         -70.2233   24.7552  -76.8403 O.2       8 UNK        -0.5577 
     35 CA        -72.2671   24.2410  -77.9727 C.3       7 UNK         0.0284 
     36 CB        -72.5050   22.7255  -77.8708 C.3       7 UNK        -0.1958 
     37 N         -73.5494   24.9384  -78.0990 N.am      7 UNK        -0.4454 
     38 C         -73.6865   26.1581  -78.6427 C.2       7 UNK         0.5089 
     39 O         -72.7603   26.7804  -79.1628 O.2       7 UNK        -0.5125 
     40 CA        -75.0818   26.8107  -78.5884 C.3       6 UNK         0.0408 
     41 CB        -75.8510   26.5452  -79.8914 C.3       6 UNK        -0.1791 
     42 N         -75.8962   26.3694  -77.4551 N.am      6 UNK        -0.4762 
     43 C         -75.5933   26.5668  -76.1633 C.2       6 UNK         0.5007 
     44 O         -74.6060   27.1979  -75.7866 O.2       6 UNK        -0.5032 
     45 CA        -76.5081   25.8995  -75.1131 C.3       5 UNK         0.0783 
     46 C46       -77.5128   26.9087  -74.5112 C.3       11 UNK        -0.0857 
     47 S47       -78.6836   27.6541  -75.7141 S.3       11 UNK        -0.2512 
     48 C48       -78.1609   29.4032  -75.7567 C.3       11 UNK         0.0225 
     49 N         -77.1729   24.6793  -75.5850 N.am      5 UNK        -0.4615 
     50 C         -76.5564   23.6014  -76.0960 C.2       4 UNK         0.5053 
     51 O         -75.3319   23.5086  -76.1866 O.2       4 UNK        -0.5105 
     52 CA        -77.4287   22.4488  -76.6341 C.3       4 UNK         0.0263 
     53 CB        -77.3690   21.2450  -75.6805 C.3       4 UNK        -0.1981 
     54 N         -78.8309   22.8108  -76.8575 N.am      4 UNK        -0.4224 
     55 C         -79.2723   23.7465  -77.7105 C.2       3 UNK         0.4895 
     56 O         -78.5440   24.3355  -78.5109 O.2       3 UNK        -0.5091 
     57 CA        -80.7646   24.1283  -77.6279 C.3       3 UNK         0.0250 
     58 CB        -81.5340   23.5293  -78.8166 C.3       3 UNK        -0.1996 
     59 N         -81.4539   23.7646  -76.3777 N.am      3 UNK        -0.4254 
     60 C         -81.0987   24.1437  -75.1406 C.2       2 UNK         0.5004 
     61 O         -80.0629   24.7584  -74.8825 O.2       2 UNK        -0.5226 
     62 CA        -82.0197   23.7025  -73.9917 C.3       2 UNK         0.0269 
     63 CB        -81.6601   22.2791  -73.5344 C.3       2 UNK        -0.1926 
     64 N         -81.9020   24.6092  -72.8474 N.am      2 UNK        -0.4687 
     65 C         -82.4432   25.8343  -72.7853 C.2       1 UNK         0.5165 
     66 O         -83.1937   26.2867  -73.6510 O.2       1 UNK        -0.5079 
     67 H67       -84.1289   24.2967  -68.9546 H         1 UNK         0.0900 
     68 H68       -84.2465   25.9019  -69.6584 H         1 UNK         0.0900 
     69 H69       -84.0021   24.4848  -70.6975 H         1 UNK         0.0900 
     70 H70       -80.5649   26.0224  -70.2928 H         1 UNK         0.2959 
     71 H71       -83.0514   27.1498  -71.2229 H         1 UNK         0.1079 
     72 H72       -80.2088   27.4763  -72.3112 H         1 UNK         0.0837 
     73 H73       -81.6038   28.4180  -72.7800 H         1 UNK         0.0837 
     74 H74       -80.5084   31.4041  -70.7488 H         1 UNK         0.0685 
     75 H75       -81.4185   30.8098  -72.1135 H         1 UNK         0.0685 
     76 H76       -80.2557   29.8502  -74.0794 H         1 UNK         0.1434 
     77 H77       -76.0004   30.2720  -74.3388 H         1 UNK         0.1329 
     78 H78       -78.0185   31.1733  -70.6649 H         1 UNK         0.1335 
     79 H79       -75.6467   31.5205  -70.8106 H         1 UNK         0.0680 
     80 H80       -75.0181   31.8551  -72.4108 H         1 UNK         0.0680 
     81 H81       -72.2748   29.4877  -70.8338 H         1 UNK         0.1032 
     82 H82       -73.0135   31.0176  -70.4465 H         1 UNK         0.1032 
     83 H83       -72.6799   31.8429  -72.7434 H         1 UNK         0.0461 
     84 H84       -71.3565   33.3335  -71.6211 H         1 UNK         0.3453 
     85 H85       -69.6778   33.0144  -71.2740 H         1 UNK         0.3453 
     86 H86       -72.4688   29.1598  -73.5016 H         1 UNK         0.2984 
     87 H87       -72.6426   29.6185  -76.4921 H         1 UNK         0.0554 
     88 H88       -70.5194   30.4163  -77.4432 H         1 UNK         0.0847 
     89 H89       -70.6947   28.7004  -77.7667 H         1 UNK         0.0847 
     90 H90       -69.6033   29.2544  -76.4966 H         1 UNK         0.0847 
     91 H91       -72.8506   27.5987  -75.6956 H         1 UNK         0.3141 
     92 H92       -70.6599   25.1920  -74.2315 H         1 UNK         0.0743 
     93 H93       -72.0741   26.1458  -72.4316 H         1 UNK         0.0784 
     94 H94       -73.4298   26.3182  -73.5330 H         1 UNK         0.0784 
     95 H95       -72.8336   24.7145  -73.1075 H         1 UNK         0.0784 
     96 H96       -73.1504   25.1126  -75.7291 H         1 UNK         0.3213 
     97 H97       -71.6776   24.4263  -78.8737 H         1 UNK         0.0855 
     98 H98       -73.0761   22.3540  -78.7217 H         1 UNK         0.0814 
     99 H99       -71.5572   22.1857  -77.8563 H         1 UNK         0.0814 
    100 H100      -73.0428   22.4565  -76.9613 H         1 UNK         0.0814 
    101 H101      -74.3519   24.4982  -77.6598 H         1 UNK         0.3105 
    102 H102      -74.9358   27.8884  -78.4901 H         1 UNK         0.0547 
    103 H103      -76.0582   25.4829  -80.0282 H         1 UNK         0.0837 
    104 H104      -75.2806   26.8819  -80.7582 H         1 UNK         0.0837 
    105 H105      -76.8033   27.0756  -79.9052 H         1 UNK         0.0837 
    106 H106      -76.7310   25.8385  -77.6710 H         1 UNK         0.3020 
    107 H107      -75.8472   25.5818  -74.3038 H         1 UNK         0.1245 
    108 H108      -76.9599   27.6828  -73.9811 H         1 UNK         0.0781 
    109 H109      -78.1076   26.4150  -73.7412 H         1 UNK         0.0781 
    110 H110      -78.8481   29.9680  -76.3880 H         1 UNK         0.0836 
    111 H111      -77.1799   29.4682  -76.2304 H         1 UNK         0.0836 
    112 H112      -78.1875   24.6820  -75.5151 H         1 UNK         0.3022 
    113 H113      -77.0066   22.1494  -77.5955 H         1 UNK         0.0747 
    114 H114      -77.7971   21.4813  -74.7054 H         1 UNK         0.0793 
    115 H115      -77.9074   20.3885  -76.0868 H         1 UNK         0.0793 
    116 H116      -76.3381   20.9278  -75.5157 H         1 UNK         0.0793 
    117 H117      -79.5071   22.3934  -76.2355 H         1 UNK         0.3047 
    118 H118      -80.8081   25.2167  -77.7074 H         1 UNK         0.0822 
    119 H119      -82.5623   23.8902  -78.8483 H         1 UNK         0.0807 
    120 H120      -81.5597   22.4397  -78.7723 H         1 UNK         0.0807 
    121 H121      -81.0687   23.8057  -79.7640 H         1 UNK         0.0807 
    122 H122      -82.3039   23.2295  -76.4864 H         1 UNK         0.2946 
    123 H123      -83.0538   23.7141  -74.3445 H         1 UNK         0.1144 
    124 H124      -82.3087   21.9480  -72.7230 H         1 UNK         0.0793 
    125 H125      -80.6282   22.2152  -73.1857 H         1 UNK         0.0793 
    126 H126      -81.7740   21.5628  -74.3491 H         1 UNK         0.0793 
    127 H127      -81.2662   24.3344  -72.1126 H         1 UNK         0.2896 
@<TRIPOS>BOND
     1    1    2 1    
     2    1   67 1    
     3    1   68 1    
     4    1   69 1    
     5    2    3 2    
     6    2    4 am   BACKBONE|DICT|INTERRES
     7    4    5 1    
     8    4   70 1    
     9    5    6 1    
    10    5   65 1    
    11    5   71 1    
    12    6    7 1    
    13    6   72 1    
    14    6   73 1    
    15    7    8 1    
    16    8    9 1    
    17    8   74 1    
    18    8   75 1    
    19    9   10 ar   
    20    9   14 ar   
    21   10   11 ar   
    22   10   76 1    
    23   11   12 ar   
    24   11   48 1    
    25   12   13 ar   
    26   12   77 1    
    27   13   14 ar   
    28   13   15 1    
    29   14   78 1    
    30   15   16 1    
    31   15   79 1    
    32   15   80 1    
    33   16   17 1    
    34   17   18 1    
    35   17   81 1    
    36   17   82 1    
    37   18   19 1    
    38   18   22 1    
    39   18   83 1    
    40   19   20 am   BACKBONE|DICT|INTERRES
    41   19   21 2    
    42   20   84 1    
    43   20   85 1    
    44   22   23 am   BACKBONE|DICT|INTERRES
    45   22   86 1    
    46   23   24 2    
    47   23   25 1    
    48   25   26 1    
    49   25   27 1    
    50   25   87 1    
    51   26   88 1    
    52   26   89 1    
    53   26   90 1    
    54   27   28 am   BACKBONE|DICT|INTERRES
    55   27   91 1    
    56   28   29 2    
    57   28   30 1    
    58   30   31 1    
    59   30   32 1    
    60   30   92 1    
    61   31   93 1    
    62   31   94 1    
    63   31   95 1    
    64   32   33 am   BACKBONE|DICT|INTERRES
    65   32   96 1    
    66   33   34 2    
    67   33   35 1    
    68   35   36 1    
    69   35   37 1    
    70   35   97 1    
    71   36   98 1    
    72   36   99 1    
    73   36  100 1    
    74   37   38 am   BACKBONE|DICT|INTERRES
    75   37  101 1    
    76   38   39 2    
    77   38   40 1    
    78   40   41 1    
    79   40   42 1    
    80   40  102 1    
    81   41  103 1    
    82   41  104 1    
    83   41  105 1    
    84   42   43 am   BACKBONE|DICT|INTERRES
    85   42  106 1    
    86   43   44 2    
    87   43   45 1    
    88   45   46 1    
    89   45   49 1    
    90   45  107 1    
    91   46   47 1    
    92   46  108 1    
    93   46  109 1    
    94   47   48 1    
    95   48  110 1    
    96   48  111 1    
    97   49   50 am   BACKBONE|DICT|INTERRES
    98   49  112 1    
    99   50   51 2    
   100   50   52 1    
   101   52   53 1    
   102   52   54 1    
   103   52  113 1    
   104   53  114 1    
   105   53  115 1    
   106   53  116 1    
   107   54   55 am   BACKBONE|DICT|INTERRES
   108   54  117 1    
   109   55   56 2    
   110   55   57 1    
   111   57   58 1    
   112   57   59 1    
   113   57  118 1    
   114   58  119 1    
   115   58  120 1    
   116   58  121 1    
   117   59   60 am   BACKBONE|DICT|INTERRES
   118   59  122 1    
   119   60   61 2    
   120   60   62 1    
   121   62   63 1    
   122   62   64 1    
   123   62  123 1    
   124   63  124 1    
   125   63  125 1    
   126   63  126 1    
   127   64   65 am   BACKBONE|DICT|INTERRES
   128   64  127 1    
   129   65   66 2    
@<TRIPOS>SUBSTRUCTURE
     1 UNK         1 GROUP             0       ****    0 ROOT    
