@<TRIPOS>MOLECULE
3R135
127   129    1
SMALL
USER_CHARGES


@<TRIPOS>ATOM
      1 CA        -79.7919   28.4250  -70.3950 C.3       0 UNK        -0.1998 
      2 C         -80.8165   28.0847  -71.4661 C.2       0 UNK         0.4909 
      3 O         -81.9390   27.6961  -71.1425 O.2       0 UNK        -0.5240 
      4 N         -80.4370   28.2365  -72.7412 N.am      1 UNK        -0.4739 
      5 CA        -81.2937   28.0122  -73.9150 C.3       1 UNK         0.0864 
      6 C6        -80.6562   28.5619  -75.2148 C.3       11 UNK        -0.0881 
      7 S7        -80.2029   30.3261  -75.1124 S.3       11 UNK        -0.2682 
      8 C8        -78.3971   30.2492  -75.3208 C.3       11 UNK         0.0289 
      9 C9        -77.6799   29.9464  -74.0134 C.ar      11 UNK        -0.0687 
     10 C10       -77.3567   28.6322  -73.6580 C.ar      11 UNK        -0.0823 
     11 C11       -76.6536   28.3683  -72.4771 C.ar      11 UNK        -0.0830 
     12 C12       -76.2847   29.4308  -71.6465 C.ar      11 UNK        -0.1021 
     13 C13       -76.6183   30.7460  -71.9825 C.ar      11 UNK        -0.0753 
     14 C14       -77.3140   30.9966  -73.1674 C.ar      11 UNK        -0.0933 
     15 C15       -76.2471   31.8968  -71.0575 C.3       11 UNK         0.0166 
     16 S16       -74.8482   32.8729  -71.6963 S.3       11 UNK        -0.2615 
     17 C17       -73.4890   31.6564  -71.6359 C.3       11 UNK        -0.0865 
     18 CA        -73.0999   31.1361  -73.0528 C.3       10 UNK         0.0862 
     19 C         -72.0797   32.0377  -73.8110 C.2       10 UNK         0.5551 
     20 N         -71.6178   31.6222  -74.9830 N.am      10 UNK        -0.7319 
     21 O         -71.6976   33.1111  -73.3499 O.2       10 UNK        -0.5018 
     22 N         -72.7164   29.7168  -73.0409 N.am      10 UNK        -0.4509 
     23 C         -71.6846   29.1845  -72.3709 C.2       10 UNK         0.4899 
     24 O         -70.9280   29.8256  -71.6415 O.2       10 UNK        -0.4839 
     25 CA        -71.4696   27.6693  -72.5241 C.3       9 UNK         0.0222 
     26 CB        -72.2478   26.9090  -71.4386 C.3       9 UNK        -0.1966 
     27 N         -71.8637   27.1856  -73.8509 N.am      9 UNK        -0.4218 
     28 C         -71.0924   27.3006  -74.9424 C.2       9 UNK         0.5020 
     29 O         -69.9413   27.7392  -74.9268 O.2       9 UNK        -0.5274 
     30 CA        -71.7099   26.8699  -76.2843 C.3       8 UNK         0.0270 
     31 CB        -71.5102   25.3627  -76.5074 C.3       8 UNK        -0.1976 
     32 N         -73.1300   27.2228  -76.4193 N.am      8 UNK        -0.4313 
     33 C         -73.5805   28.4881  -76.4569 C.2       8 UNK         0.5041 
     34 O         -72.8356   29.4625  -76.3467 O.2       8 UNK        -0.5577 
     35 CA        -75.0948   28.7432  -76.5894 C.3       7 UNK         0.0284 
     36 CB        -75.3969   29.9421  -77.5153 C.3       7 UNK        -0.1958 
     37 N         -75.8898   27.5636  -76.9524 N.am      7 UNK        -0.4454 
     38 C         -75.9212   26.9110  -78.1243 C.2       7 UNK         0.5089 
     39 O         -75.2953   27.2580  -79.1266 O.2       7 UNK        -0.5125 
     40 CA        -76.7864   25.6290  -78.1532 C.3       6 UNK         0.0408 
     41 CB        -76.3964   24.6783  -79.3036 C.3       6 UNK        -0.1791 
     42 N         -76.7993   24.8997  -76.8747 N.am      6 UNK        -0.4762 
     43 C         -75.7231   24.4694  -76.1946 C.2       6 UNK         0.5007 
     44 O         -74.5639   24.6378  -76.5690 O.2       6 UNK        -0.5032 
     45 CA        -75.9866   23.7661  -74.8551 C.3       5 UNK         0.0783 
     46 C46       -76.5176   24.7437  -73.7783 C.3       11 UNK        -0.0857 
     47 S47       -75.3412   26.0637  -73.3308 S.3       11 UNK        -0.2512 
     48 C48       -76.3220   26.9393  -72.0686 C.3       11 UNK         0.0225 
     49 N         -76.9054   22.6493  -75.0670 N.am      5 UNK        -0.4615 
     50 C         -76.5350   21.4263  -75.4712 C.2       4 UNK         0.5053 
     51 O         -75.3626   21.0847  -75.6270 O.2       4 UNK        -0.5105 
     52 CA        -77.6527   20.4001  -75.7377 C.3       4 UNK         0.0263 
     53 CB        -77.8191   19.4655  -74.5284 C.3       4 UNK        -0.1981 
     54 N         -78.9430   21.0226  -76.0418 N.am      4 UNK        -0.4224 
     55 C         -79.2427   21.6373  -77.1953 C.2       3 UNK         0.4895 
     56 O         -78.4977   21.6610  -78.1746 O.2       3 UNK        -0.5091 
     57 CA        -80.5919   22.3775  -77.2537 C.3       3 UNK         0.0250 
     58 CB        -81.6779   21.4720  -77.8565 C.3       3 UNK        -0.1996 
     59 N         -81.0429   22.8802  -75.9488 N.am      3 UNK        -0.4254 
     60 C         -80.4063   23.8232  -75.2415 C.2       2 UNK         0.5004 
     61 O         -79.3579   24.3625  -75.6079 O.2       2 UNK        -0.5226 
     62 CA        -80.9885   24.1689  -73.8630 C.3       2 UNK         0.0269 
     63 CB        -80.2468   23.3945  -72.7613 C.3       2 UNK        -0.1926 
     64 N         -80.8660   25.6027  -73.6049 N.am      2 UNK        -0.4687 
     65 C         -81.6758   26.5320  -74.1304 C.2       1 UNK         0.5165 
     66 O         -82.6807   26.2601  -74.7900 O.2       1 UNK        -0.5079 
     67 H67       -79.0284   29.1036  -70.7733 H         1 UNK         0.0900 
     68 H68       -79.3035   27.5191  -70.0377 H         1 UNK         0.0900 
     69 H69       -80.2764   28.9096  -69.5478 H         1 UNK         0.0900 
     70 H70       -79.5183   28.6088  -72.9410 H         1 UNK         0.2959 
     71 H71       -82.2269   28.5529  -73.7416 H         1 UNK         0.1079 
     72 H72       -79.7834   27.9687  -75.4931 H         1 UNK         0.0837 
     73 H73       -81.3561   28.4610  -76.0471 H         1 UNK         0.0837 
     74 H74       -78.1426   29.5094  -76.0803 H         1 UNK         0.0685 
     75 H75       -78.0520   31.2078  -75.7114 H         1 UNK         0.0685 
     76 H76       -77.6429   27.8135  -74.3026 H         1 UNK         0.1434 
     77 H77       -75.7503   29.2343  -70.7271 H         1 UNK         0.1329 
     78 H78       -77.5663   32.0143  -73.4332 H         1 UNK         0.1335 
     79 H79       -77.1091   32.5551  -70.9399 H         1 UNK         0.0680 
     80 H80       -76.0072   31.5309  -70.0579 H         1 UNK         0.0680 
     81 H81       -73.7988   30.8282  -70.9980 H         1 UNK         0.1032 
     82 H82       -72.6313   32.0966  -71.1241 H         1 UNK         0.1032 
     83 H83       -74.0014   31.1562  -73.6671 H         1 UNK         0.0461 
     84 H84       -70.9545   32.1916  -75.4827 H         1 UNK         0.3453 
     85 H85       -71.9768   30.7698  -75.4116 H         1 UNK         0.3453 
     86 H86       -73.2572   29.1155  -73.6421 H         1 UNK         0.2984 
     87 H87       -70.4071   27.4634  -72.3768 H         1 UNK         0.0554 
     88 H88       -72.1371   25.8299  -71.5464 H         1 UNK         0.0847 
     89 H89       -73.3112   27.1442  -71.4624 H         1 UNK         0.0847 
     90 H90       -71.8834   27.1744  -70.4453 H         1 UNK         0.0847 
     91 H91       -72.7886   26.7896  -73.9468 H         1 UNK         0.3141 
     92 H92       -71.1702   27.3971  -77.0741 H         1 UNK         0.0743 
     93 H93       -72.0097   24.7703  -75.7399 H         1 UNK         0.0784 
     94 H94       -71.8964   25.0498  -77.4777 H         1 UNK         0.0784 
     95 H95       -70.4513   25.1020  -76.4809 H         1 UNK         0.0784 
     96 H96       -73.7821   26.4497  -76.5221 H         1 UNK         0.3213 
     97 H97       -75.4196   29.0231  -75.5881 H         1 UNK         0.0855 
     98 H98       -74.9935   30.8659  -77.0986 H         1 UNK         0.0814 
     99 H99       -76.4667   30.0906  -77.6536 H         1 UNK         0.0814 
    100 H100      -74.9492   29.8135  -78.5011 H         1 UNK         0.0814 
    101 H101      -76.4200   27.1496  -76.2000 H         1 UNK         0.3105 
    102 H102      -77.8120   25.9572  -78.3273 H         1 UNK         0.0547 
    103 H103      -76.5050   25.1674  -80.2722 H         1 UNK         0.0837 
    104 H104      -75.3608   24.3472  -79.2198 H         1 UNK         0.0837 
    105 H105      -77.0309   23.7921  -79.3171 H         1 UNK         0.0837 
    106 H106      -77.7205   24.7232  -76.4761 H         1 UNK         0.3020 
    107 H107      -75.0308   23.3711  -74.5013 H         1 UNK         0.1245 
    108 H108      -76.7426   24.1842  -72.8689 H         1 UNK         0.0781 
    109 H109      -77.4551   25.2055  -74.0892 H         1 UNK         0.0781 
    110 H110      -75.7622   26.9249  -71.1325 H         1 UNK         0.0836 
    111 H111      -77.2530   26.4089  -71.8647 H         1 UNK         0.0836 
    112 H112      -77.8905   22.8733  -75.0333 H         1 UNK         0.3022 
    113 H113      -77.3490   19.7984  -76.5972 H         1 UNK         0.0747 
    114 H114      -78.5600   18.6901  -74.7245 H         1 UNK         0.0793 
    115 H115      -76.8805   18.9613  -74.2933 H         1 UNK         0.0793 
    116 H116      -78.1288   20.0096  -73.6350 H         1 UNK         0.0793 
    117 H117      -79.6320   21.0285  -75.3043 H         1 UNK         0.3047 
    118 H118      -80.4592   23.2384  -77.9130 H         1 UNK         0.0822 
    119 H119      -82.6164   22.0109  -77.9882 H         1 UNK         0.0807 
    120 H120      -81.8742   20.6014  -77.2294 H         1 UNK         0.0807 
    121 H121      -81.3779   21.1045  -78.8391 H         1 UNK         0.0807 
    122 H122      -81.8932   22.4784  -75.5794 H         1 UNK         0.2946 
    123 H123      -82.0453   23.8920  -73.8373 H         1 UNK         0.1144 
    124 H124      -80.3387   22.3175  -72.9075 H         1 UNK         0.0793 
    125 H125      -80.6566   23.6206  -71.7766 H         1 UNK         0.0793 
    126 H126      -79.1830   23.6317  -72.7414 H         1 UNK         0.0793 
    127 H127      -80.0529   25.9117  -73.0944 H         1 UNK         0.2896 
@<TRIPOS>BOND
     1    1    2 1    
     2    1   67 1    
     3    1   68 1    
     4    1   69 1    
     5    2    3 2    
     6    2    4 am   BACKBONE|DICT|INTERRES
     7    4    5 1    
     8    4   70 1    
     9    5    6 1    
    10    5   65 1    
    11    5   71 1    
    12    6    7 1    
    13    6   72 1    
    14    6   73 1    
    15    7    8 1    
    16    8    9 1    
    17    8   74 1    
    18    8   75 1    
    19    9   10 ar   
    20    9   14 ar   
    21   10   11 ar   
    22   10   76 1    
    23   11   12 ar   
    24   11   48 1    
    25   12   13 ar   
    26   12   77 1    
    27   13   14 ar   
    28   13   15 1    
    29   14   78 1    
    30   15   16 1    
    31   15   79 1    
    32   15   80 1    
    33   16   17 1    
    34   17   18 1    
    35   17   81 1    
    36   17   82 1    
    37   18   19 1    
    38   18   22 1    
    39   18   83 1    
    40   19   20 am   BACKBONE|DICT|INTERRES
    41   19   21 2    
    42   20   84 1    
    43   20   85 1    
    44   22   23 am   BACKBONE|DICT|INTERRES
    45   22   86 1    
    46   23   24 2    
    47   23   25 1    
    48   25   26 1    
    49   25   27 1    
    50   25   87 1    
    51   26   88 1    
    52   26   89 1    
    53   26   90 1    
    54   27   28 am   BACKBONE|DICT|INTERRES
    55   27   91 1    
    56   28   29 2    
    57   28   30 1    
    58   30   31 1    
    59   30   32 1    
    60   30   92 1    
    61   31   93 1    
    62   31   94 1    
    63   31   95 1    
    64   32   33 am   BACKBONE|DICT|INTERRES
    65   32   96 1    
    66   33   34 2    
    67   33   35 1    
    68   35   36 1    
    69   35   37 1    
    70   35   97 1    
    71   36   98 1    
    72   36   99 1    
    73   36  100 1    
    74   37   38 am   BACKBONE|DICT|INTERRES
    75   37  101 1    
    76   38   39 2    
    77   38   40 1    
    78   40   41 1    
    79   40   42 1    
    80   40  102 1    
    81   41  103 1    
    82   41  104 1    
    83   41  105 1    
    84   42   43 am   BACKBONE|DICT|INTERRES
    85   42  106 1    
    86   43   44 2    
    87   43   45 1    
    88   45   46 1    
    89   45   49 1    
    90   45  107 1    
    91   46   47 1    
    92   46  108 1    
    93   46  109 1    
    94   47   48 1    
    95   48  110 1    
    96   48  111 1    
    97   49   50 am   BACKBONE|DICT|INTERRES
    98   49  112 1    
    99   50   51 2    
   100   50   52 1    
   101   52   53 1    
   102   52   54 1    
   103   52  113 1    
   104   53  114 1    
   105   53  115 1    
   106   53  116 1    
   107   54   55 am   BACKBONE|DICT|INTERRES
   108   54  117 1    
   109   55   56 2    
   110   55   57 1    
   111   57   58 1    
   112   57   59 1    
   113   57  118 1    
   114   58  119 1    
   115   58  120 1    
   116   58  121 1    
   117   59   60 am   BACKBONE|DICT|INTERRES
   118   59  122 1    
   119   60   61 2    
   120   60   62 1    
   121   62   63 1    
   122   62   64 1    
   123   62  123 1    
   124   63  124 1    
   125   63  125 1    
   126   63  126 1    
   127   64   65 am   BACKBONE|DICT|INTERRES
   128   64  127 1    
   129   65   66 2    
@<TRIPOS>SUBSTRUCTURE
     1 UNK         1 GROUP             0       ****    0 ROOT    
