@<TRIPOS>MOLECULE
3R135
127   129    1
SMALL
USER_CHARGES


@<TRIPOS>ATOM
      1 CA        -75.9113   22.8369  -74.1251 C.3       0 UNK        -0.1998 
      2 C         -76.8613   22.9576  -72.9452 C.2       0 UNK         0.4909 
      3 O         -76.9147   22.0628  -72.1020 O.2       0 UNK        -0.5240 
      4 N         -77.6442   24.0422  -72.8941 N.am      1 UNK        -0.4739 
      5 CA        -78.6179   24.3637  -71.8405 C.3       1 UNK         0.0864 
      6 C6        -78.8099   25.8991  -71.7260 C.3       11 UNK        -0.0881 
      7 S7        -79.3709   26.7002  -73.2739 S.3       11 UNK        -0.2682 
      8 C8        -80.0571   28.2593  -72.6362 C.3       11 UNK         0.0289 
      9 C9        -78.9943   29.3449  -72.5620 C.ar      11 UNK        -0.0687 
     10 C10       -78.9379   30.3345  -73.5466 C.ar      11 UNK        -0.0823 
     11 C11       -77.9614   31.3332  -73.4956 C.ar      11 UNK        -0.0830 
     12 C12       -77.0423   31.3444  -72.4421 C.ar      11 UNK        -0.1021 
     13 C13       -77.0929   30.3639  -71.4471 C.ar      11 UNK        -0.0753 
     14 C14       -78.0735   29.3692  -71.5106 C.ar      11 UNK        -0.0933 
     15 C15       -76.1006   30.3802  -70.2949 C.3       11 UNK         0.0166 
     16 S16       -74.5344   29.5778  -70.7540 S.3       11 UNK        -0.2615 
     17 C17       -73.4850   31.0290  -71.1240 C.3       11 UNK        -0.0865 
     18 CA        -72.1356   30.6721  -71.7997 C.3       10 UNK         0.0862 
     19 C         -71.1935   29.8752  -70.8460 C.2       10 UNK         0.5551 
     20 N         -70.8961   28.6066  -71.1071 N.am      10 UNK        -0.7319 
     21 O         -70.7163   30.4276  -69.8576 O.2       10 UNK        -0.5018 
     22 N         -72.3459   30.0576  -73.1172 N.am      10 UNK        -0.4509 
     23 C         -71.4039   29.9201  -74.0591 C.2       10 UNK         0.4899 
     24 O         -70.2907   30.4433  -73.9862 O.2       10 UNK        -0.4839 
     25 CA        -71.7573   29.0545  -75.2871 C.3       9 UNK         0.0222 
     26 CB        -70.5321   28.2973  -75.8401 C.3       9 UNK        -0.1966 
     27 N         -72.8740   28.1228  -75.0796 N.am      9 UNK        -0.4218 
     28 C         -72.9772   27.1470  -74.1631 C.2       9 UNK         0.5020 
     29 O         -72.1373   26.9252  -73.2889 O.2       9 UNK        -0.5274 
     30 CA        -74.2458   26.2809  -74.2321 C.3       8 UNK         0.0270 
     31 CB        -75.4365   27.0159  -73.5937 C.3       8 UNK        -0.1976 
     32 N         -74.5865   25.8875  -75.6027 N.am      8 UNK        -0.4313 
     33 C         -73.8472   25.0716  -76.3706 C.2       8 UNK         0.5041 
     34 O         -72.8133   24.5210  -75.9915 O.2       8 UNK        -0.5577 
     35 CA        -74.3447   24.8190  -77.8024 C.3       7 UNK         0.0284 
     36 CB        -75.3750   23.6795  -77.8346 C.3       7 UNK        -0.1958 
     37 N         -74.9319   26.0239  -78.3873 N.am      7 UNK        -0.4454 
     38 C         -74.2294   26.9726  -79.0204 C.2       7 UNK         0.5089 
     39 O         -73.0226   26.8957  -79.2522 O.2       7 UNK        -0.5125 
     40 CA        -75.0007   28.2283  -79.4676 C.3       6 UNK         0.0408 
     41 CB        -75.4970   28.0654  -80.9129 C.3       6 UNK        -0.1791 
     42 N         -76.1343   28.5684  -78.6016 N.am      6 UNK        -0.4762 
     43 C         -76.0300   28.9297  -77.3139 C.2       6 UNK         0.5007 
     44 O         -74.9618   28.9913  -76.7066 O.2       6 UNK        -0.5032 
     45 CA        -77.3471   29.2205  -76.5657 C.3       5 UNK         0.0783 
     46 C46       -77.8181   30.6767  -76.8185 C.3       11 UNK        -0.0857 
     47 S47       -76.8094   31.9230  -75.9434 S.3       11 UNK        -0.2512 
     48 C48       -77.9032   32.4069  -74.5712 C.3       11 UNK         0.0225 
     49 N         -78.4166   28.2590  -76.8703 N.am      5 UNK        -0.4615 
     50 C         -78.3405   26.9224  -76.7994 C.2       4 UNK         0.5053 
     51 O         -77.3159   26.2958  -76.5092 O.2       4 UNK        -0.5105 
     52 CA        -79.6245   26.1646  -77.1592 C.3       4 UNK         0.0263 
     53 CB        -79.9653   26.3341  -78.6534 C.3       4 UNK        -0.1981 
     54 N         -79.4641   24.7449  -76.8534 N.am      4 UNK        -0.4224 
     55 C         -80.4613   23.8844  -76.6103 C.2       3 UNK         0.4895 
     56 O         -81.6485   24.2103  -76.5740 O.2       3 UNK        -0.5091 
     57 CA        -80.0869   22.4084  -76.3868 C.3       3 UNK         0.0250 
     58 CB        -78.7105   22.0174  -76.9629 C.3       3 UNK        -0.1996 
     59 N         -80.1025   22.1099  -74.9586 N.am      3 UNK        -0.4254 
     60 C         -81.1239   21.5839  -74.2680 C.2       2 UNK         0.5004 
     61 O         -82.1880   21.2244  -74.7729 O.2       2 UNK        -0.5226 
     62 CA        -80.9121   21.4135  -72.7497 C.3       2 UNK         0.0269 
     63 CB        -80.5944   19.9480  -72.4104 C.3       2 UNK        -0.1926 
     64 N         -79.8279   22.2644  -72.2487 N.am      2 UNK        -0.4687 
     65 C         -79.9419   23.5782  -72.0154 C.2       1 UNK         0.5165 
     66 O         -81.0287   24.1576  -71.9836 O.2       1 UNK        -0.5079 
     67 H67       -76.0947   23.6137  -74.8649 H         1 UNK         0.0900 
     68 H68       -76.0320   21.8694  -74.6115 H         1 UNK         0.0900 
     69 H69       -74.8787   22.9225  -73.7880 H         1 UNK         0.0900 
     70 H70       -77.5872   24.7356  -73.6271 H         1 UNK         0.2959 
     71 H71       -78.2039   24.0273  -70.8869 H         1 UNK         0.1079 
     72 H72       -79.5071   26.1299  -70.9187 H         1 UNK         0.0837 
     73 H73       -77.8624   26.3561  -71.4376 H         1 UNK         0.0837 
     74 H74       -80.5112   28.1073  -71.6563 H         1 UNK         0.0685 
     75 H75       -80.8679   28.5715  -73.2961 H         1 UNK         0.0685 
     76 H76       -79.6548   30.3233  -74.3554 H         1 UNK         0.1434 
     77 H77       -76.2884   32.1177  -72.3977 H         1 UNK         0.1329 
     78 H78       -78.1185   28.6115  -70.7412 H         1 UNK         0.1335 
     79 H79       -75.9220   31.4044  -69.9638 H         1 UNK         0.0680 
     80 H80       -76.5189   29.8555  -69.4345 H         1 UNK         0.0680 
     81 H81       -74.0398   31.7106  -71.7693 H         1 UNK         0.1032 
     82 H82       -73.3098   31.5788  -70.1971 H         1 UNK         0.1032 
     83 H83       -71.6237   31.6188  -71.9832 H         1 UNK         0.0461 
     84 H84       -70.2828   28.1049  -70.4855 H         1 UNK         0.3453 
     85 H85       -71.3072   28.1315  -71.9043 H         1 UNK         0.3453 
     86 H86       -73.2264   29.5812  -73.2434 H         1 UNK         0.2984 
     87 H87       -72.0917   29.7503  -76.0578 H         1 UNK         0.0554 
     88 H88       -70.7944   27.7116  -76.7216 H         1 UNK         0.0847 
     89 H89       -70.1114   27.6170  -75.0989 H         1 UNK         0.0847 
     90 H90       -69.7411   28.9874  -76.1360 H         1 UNK         0.0847 
     91 H91       -73.6629   28.2672  -75.7107 H         1 UNK         0.3141 
     92 H92       -74.0609   25.3690  -73.6610 H         1 UNK         0.0743 
     93 H93       -75.6062   27.9928  -74.0463 H         1 UNK         0.0784 
     94 H94       -76.3578   26.4449  -73.6895 H         1 UNK         0.0784 
     95 H95       -75.2663   27.1788  -72.5290 H         1 UNK         0.0784 
     96 H96       -75.4594   26.2455  -75.9796 H         1 UNK         0.3213 
     97 H97       -73.4851   24.5078  -78.4006 H         1 UNK         0.0855 
     98 H98       -76.2861   23.9484  -77.3038 H         1 UNK         0.0814 
     99 H99       -74.9764   22.7763  -77.3705 H         1 UNK         0.0814 
    100 H100      -75.6488   23.4240  -78.8583 H         1 UNK         0.0814 
    101 H101      -75.9107   26.1948  -78.1969 H         1 UNK         0.3105 
    102 H102      -74.3017   29.0670  -79.4405 H         1 UNK         0.0547 
    103 H103      -76.2228   27.2562  -81.0033 H         1 UNK         0.0837 
    104 H104      -75.9640   28.9798  -81.2790 H         1 UNK         0.0837 
    105 H105      -74.6692   27.8361  -81.5857 H         1 UNK         0.0837 
    106 H106      -77.0544   28.5310  -79.0164 H         1 UNK         0.3020 
    107 H107      -77.1383   29.1070  -75.5000 H         1 UNK         0.1245 
    108 H108      -78.8570   30.7988  -76.5116 H         1 UNK         0.0781 
    109 H109      -77.8094   30.9116  -77.8848 H         1 UNK         0.0781 
    110 H110      -77.5316   33.3382  -74.1410 H         1 UNK         0.0836 
    111 H111      -78.9021   32.6304  -74.9491 H         1 UNK         0.0836 
    112 H112      -79.3027   28.6647  -77.1333 H         1 UNK         0.3022 
    113 H113      -80.4317   26.5725  -76.5466 H         1 UNK         0.0747 
    114 H114      -80.1166   27.3817  -78.9153 H         1 UNK         0.0793 
    115 H115      -80.8844   25.8081  -78.9127 H         1 UNK         0.0793 
    116 H116      -79.1705   25.9474  -79.2926 H         1 UNK         0.0793 
    117 H117      -78.5030   24.4366  -76.8063 H         1 UNK         0.3047 
    118 H118      -80.8419   21.8082  -76.8997 H         1 UNK         0.0822 
    119 H119      -78.6213   22.3051  -78.0117 H         1 UNK         0.0807 
    120 H120      -78.5664   20.9377  -76.9178 H         1 UNK         0.0807 
    121 H121      -77.8884   22.4754  -76.4151 H         1 UNK         0.0807 
    122 H122      -79.2942   22.3994  -74.4305 H         1 UNK         0.2946 
    123 H123      -81.8454   21.6901  -72.2535 H         1 UNK         0.1144 
    124 H124      -79.6693   19.6147  -72.8826 H         1 UNK         0.0793 
    125 H125      -81.3921   19.2866  -72.7518 H         1 UNK         0.0793 
    126 H126      -80.4935   19.8033  -71.3346 H         1 UNK         0.0793 
    127 H127      -78.8957   21.8621  -72.2093 H         1 UNK         0.2896 
@<TRIPOS>BOND
     1    1    2 1    
     2    1   67 1    
     3    1   68 1    
     4    1   69 1    
     5    2    3 2    
     6    2    4 am   BACKBONE|DICT|INTERRES
     7    4    5 1    
     8    4   70 1    
     9    5    6 1    
    10    5   65 1    
    11    5   71 1    
    12    6    7 1    
    13    6   72 1    
    14    6   73 1    
    15    7    8 1    
    16    8    9 1    
    17    8   74 1    
    18    8   75 1    
    19    9   10 ar   
    20    9   14 ar   
    21   10   11 ar   
    22   10   76 1    
    23   11   12 ar   
    24   11   48 1    
    25   12   13 ar   
    26   12   77 1    
    27   13   14 ar   
    28   13   15 1    
    29   14   78 1    
    30   15   16 1    
    31   15   79 1    
    32   15   80 1    
    33   16   17 1    
    34   17   18 1    
    35   17   81 1    
    36   17   82 1    
    37   18   19 1    
    38   18   22 1    
    39   18   83 1    
    40   19   20 am   BACKBONE|DICT|INTERRES
    41   19   21 2    
    42   20   84 1    
    43   20   85 1    
    44   22   23 am   BACKBONE|DICT|INTERRES
    45   22   86 1    
    46   23   24 2    
    47   23   25 1    
    48   25   26 1    
    49   25   27 1    
    50   25   87 1    
    51   26   88 1    
    52   26   89 1    
    53   26   90 1    
    54   27   28 am   BACKBONE|DICT|INTERRES
    55   27   91 1    
    56   28   29 2    
    57   28   30 1    
    58   30   31 1    
    59   30   32 1    
    60   30   92 1    
    61   31   93 1    
    62   31   94 1    
    63   31   95 1    
    64   32   33 am   BACKBONE|DICT|INTERRES
    65   32   96 1    
    66   33   34 2    
    67   33   35 1    
    68   35   36 1    
    69   35   37 1    
    70   35   97 1    
    71   36   98 1    
    72   36   99 1    
    73   36  100 1    
    74   37   38 am   BACKBONE|DICT|INTERRES
    75   37  101 1    
    76   38   39 2    
    77   38   40 1    
    78   40   41 1    
    79   40   42 1    
    80   40  102 1    
    81   41  103 1    
    82   41  104 1    
    83   41  105 1    
    84   42   43 am   BACKBONE|DICT|INTERRES
    85   42  106 1    
    86   43   44 2    
    87   43   45 1    
    88   45   46 1    
    89   45   49 1    
    90   45  107 1    
    91   46   47 1    
    92   46  108 1    
    93   46  109 1    
    94   47   48 1    
    95   48  110 1    
    96   48  111 1    
    97   49   50 am   BACKBONE|DICT|INTERRES
    98   49  112 1    
    99   50   51 2    
   100   50   52 1    
   101   52   53 1    
   102   52   54 1    
   103   52  113 1    
   104   53  114 1    
   105   53  115 1    
   106   53  116 1    
   107   54   55 am   BACKBONE|DICT|INTERRES
   108   54  117 1    
   109   55   56 2    
   110   55   57 1    
   111   57   58 1    
   112   57   59 1    
   113   57  118 1    
   114   58  119 1    
   115   58  120 1    
   116   58  121 1    
   117   59   60 am   BACKBONE|DICT|INTERRES
   118   59  122 1    
   119   60   61 2    
   120   60   62 1    
   121   62   63 1    
   122   62   64 1    
   123   62  123 1    
   124   63  124 1    
   125   63  125 1    
   126   63  126 1    
   127   64   65 am   BACKBONE|DICT|INTERRES
   128   64  127 1    
   129   65   66 2    
@<TRIPOS>SUBSTRUCTURE
     1 UNK         1 GROUP             0       ****    0 ROOT    
