@<TRIPOS>MOLECULE
3R135
127   129    1
SMALL
USER_CHARGES


@<TRIPOS>ATOM
      1 CA        -82.1367   22.1042  -72.0856 C.3       0 UNK        -0.1998 
      2 C         -82.3850   23.5742  -72.3852 C.2       0 UNK         0.4909 
      3 O         -83.2385   23.8936  -73.2142 O.2       0 UNK        -0.5240 
      4 N         -81.6410   24.4700  -71.7213 N.am      1 UNK        -0.4739 
      5 CA        -81.6429   25.9218  -71.9393 C.3       1 UNK         0.0864 
      6 C6        -80.7204   26.6926  -70.9436 C.3       11 UNK        -0.0881 
      7 S7        -79.2847   25.7791  -70.2537 S.3       11 UNK        -0.2682 
      8 C8        -77.9660   25.9555  -71.5015 C.3       11 UNK         0.0289 
      9 C9        -77.5300   27.3957  -71.7260 C.ar      11 UNK        -0.0687 
     10 C10       -77.9972   28.1071  -72.8332 C.ar      11 UNK        -0.0823 
     11 C11       -77.5596   29.4079  -73.0854 C.ar      11 UNK        -0.0830 
     12 C12       -76.6600   30.0105  -72.2017 C.ar      11 UNK        -0.1021 
     13 C13       -76.1828   29.3115  -71.0876 C.ar      11 UNK        -0.0753 
     14 C14       -76.6201   28.0030  -70.8568 C.ar      11 UNK        -0.0933 
     15 C15       -75.1993   29.9626  -70.1270 C.3       11 UNK         0.0166 
     16 S16       -73.4971   29.9081  -70.7696 S.3       11 UNK        -0.2615 
     17 C17       -73.3447   31.5764  -71.5021 C.3       11 UNK        -0.0865 
     18 CA        -72.2686   31.6871  -72.6114 C.3       10 UNK         0.0862 
     19 C         -70.8213   31.6041  -72.0381 C.2       10 UNK         0.5551 
     20 N         -70.0100   30.6170  -72.3991 N.am      10 UNK        -0.7319 
     21 O         -70.4238   32.4673  -71.2589 O.2       10 UNK        -0.5018 
     22 N         -72.5505   30.7853  -73.7395 N.am      10 UNK        -0.4509 
     23 C         -72.0536   30.9433  -74.9731 C.2       10 UNK         0.4899 
     24 O         -71.4140   31.9382  -75.3201 O.2       10 UNK        -0.4839 
     25 CA        -72.3076   29.8121  -75.9938 C.3       9 UNK         0.0222 
     26 CB        -71.2277   29.7688  -77.0949 C.3       9 UNK        -0.1966 
     27 N         -72.4768   28.4671  -75.4268 N.am      9 UNK        -0.4218 
     28 C         -71.6593   27.8171  -74.5826 C.2       9 UNK         0.5020 
     29 O         -70.6773   28.3222  -74.0372 O.2       9 UNK        -0.5274 
     30 CA        -71.9790   26.3338  -74.3367 C.3       8 UNK         0.0270 
     31 CB        -73.3029   26.1626  -73.5698 C.3       8 UNK        -0.1976 
     32 N         -72.0201   25.5835  -75.5952 N.am      8 UNK        -0.4313 
     33 C         -70.9607   25.3420  -76.3816 C.2       8 UNK         0.5041 
     34 O         -69.8046   25.6262  -76.0661 O.2       8 UNK        -0.5577 
     35 CA        -71.2048   24.7036  -77.7651 C.3       7 UNK         0.0284 
     36 CB        -71.0140   23.1740  -77.7185 C.3       7 UNK        -0.1958 
     37 N         -72.4765   25.0836  -78.4018 N.am      7 UNK        -0.4454 
     38 C         -73.7191   24.7481  -78.0355 C.2       7 UNK         0.5089 
     39 O         -73.9818   23.9831  -77.1060 O.2       7 UNK        -0.5125 
     40 CA        -74.8647   25.4241  -78.8081 C.3       6 UNK         0.0408 
     41 CB        -75.4466   24.4651  -79.8580 C.3       6 UNK        -0.1791 
     42 N         -75.9328   25.8584  -77.9047 N.am      6 UNK        -0.4762 
     43 C         -75.7836   26.7287  -76.8930 C.2       6 UNK         0.5007 
     44 O         -74.7384   27.3429  -76.6727 O.2       6 UNK        -0.5032 
     45 CA        -76.9873   26.9124  -75.9452 C.3       5 UNK         0.0783 
     46 C46       -77.8434   28.1477  -76.3216 C.3       11 UNK        -0.0857 
     47 S47       -77.0937   29.7314  -75.8010 S.3       11 UNK        -0.2512 
     48 C48       -78.0571   30.1579  -74.3127 C.3       11 UNK         0.0225 
     49 N         -77.8087   25.6981  -75.8621 N.am      5 UNK        -0.4615 
     50 C         -77.4408   24.5740  -75.2273 C.2       4 UNK         0.5053 
     51 O         -76.3846   24.4696  -74.6039 O.2       4 UNK        -0.5105 
     52 CA        -78.4008   23.3694  -75.2891 C.3       4 UNK         0.0263 
     53 CB        -78.5057   22.6506  -73.9305 C.3       4 UNK        -0.1981 
     54 N         -79.7458   23.7694  -75.7030 N.am      4 UNK        -0.4224 
     55 C         -80.4008   23.3420  -76.7901 C.2       3 UNK         0.4895 
     56 O         -79.9256   22.5510  -77.6054 O.2       3 UNK        -0.5091 
     57 CA        -81.8332   23.8696  -77.0149 C.3       3 UNK         0.0250 
     58 CB        -82.8619   22.7774  -76.6787 C.3       3 UNK        -0.1996 
     59 N         -82.1542   25.0758  -76.2449 N.am      3 UNK        -0.4254 
     60 C         -81.6577   26.2961  -76.4955 C.2       2 UNK         0.5004 
     61 O         -80.9017   26.5452  -77.4346 O.2       2 UNK        -0.5226 
     62 CA        -82.0120   27.4184  -75.4981 C.3       2 UNK         0.0269 
     63 CB        -83.2770   28.1602  -75.9576 C.3       2 UNK        -0.1926 
     64 N         -82.1829   26.9860  -74.1019 N.am      2 UNK        -0.4687 
     65 C         -81.3004   26.2573  -73.4027 C.2       1 UNK         0.5165 
     66 O         -80.2564   25.8243  -73.8835 O.2       1 UNK        -0.5079 
     67 H67       -83.0493   21.6366  -71.7171 H         1 UNK         0.0900 
     68 H68       -81.3572   21.9672  -71.3362 H         1 UNK         0.0900 
     69 H69       -81.8290   21.5855  -72.9932 H         1 UNK         0.0900 
     70 H70       -80.9412   24.1506  -71.0658 H         1 UNK         0.2959 
     71 H71       -82.6675   26.2575  -71.7646 H         1 UNK         0.1079 
     72 H72       -80.3842   27.6477  -71.3513 H         1 UNK         0.0837 
     73 H73       -81.3250   26.9707  -70.0792 H         1 UNK         0.0837 
     74 H74       -77.1047   25.3730  -71.1715 H         1 UNK         0.0685 
     75 H75       -78.2769   25.4974  -72.4374 H         1 UNK         0.0685 
     76 H76       -78.6845   27.6404  -73.5195 H         1 UNK         0.1434 
     77 H77       -76.3279   31.0212  -72.3884 H         1 UNK         0.1329 
     78 H78       -76.2494   27.4526  -70.0029 H         1 UNK         0.1335 
     79 H79       -75.4975   30.9919  -69.9222 H         1 UNK         0.0680 
     80 H80       -75.2204   29.4486  -69.1647 H         1 UNK         0.0680 
     81 H81       -73.1436   32.2900  -70.7006 H         1 UNK         0.1032 
     82 H82       -74.3057   31.8768  -71.9177 H         1 UNK         0.1032 
     83 H83       -72.3512   32.7029  -73.0034 H         1 UNK         0.0461 
     84 H84       -69.0765   30.5839  -72.0228 H         1 UNK         0.3453 
     85 H85       -70.3266   29.8825  -73.0273 H         1 UNK         0.3453 
     86 H86       -73.0441   29.9339  -73.5150 H         1 UNK         0.2984 
     87 H87       -73.2580   30.0524  -76.4726 H         1 UNK         0.0554 
     88 H88       -71.4438   28.9949  -77.8315 H         1 UNK         0.0847 
     89 H89       -70.2398   29.5679  -76.6784 H         1 UNK         0.0847 
     90 H90       -71.1702   30.7158  -77.6329 H         1 UNK         0.0847 
     91 H91       -73.2755   27.9554  -75.8029 H         1 UNK         0.3141 
     92 H92       -71.1781   25.9174  -73.7220 H         1 UNK         0.0743 
     93 H93       -74.1606   26.5191  -74.1399 H         1 UNK         0.0784 
     94 H94       -73.4848   25.1162  -73.3239 H         1 UNK         0.0784 
     95 H95       -73.2848   26.7177  -72.6306 H         1 UNK         0.0784 
     96 H96       -72.9265   25.2639  -75.9207 H         1 UNK         0.3213 
     97 H97       -70.4288   25.1022  -78.4210 H         1 UNK         0.0855 
     98 H98       -71.7144   22.6920  -77.0362 H         1 UNK         0.0814 
     99 H99       -70.0097   22.9212  -77.3763 H         1 UNK         0.0814 
    100 H100      -71.1422   22.7270  -78.7043 H         1 UNK         0.0814 
    101 H101      -72.3829   25.7421  -79.1637 H         1 UNK         0.3105 
    102 H102      -74.4797   26.3100  -79.3174 H         1 UNK         0.0547 
    103 H103      -76.2349   24.9423  -80.4405 H         1 UNK         0.0837 
    104 H104      -74.6772   24.1420  -80.5606 H         1 UNK         0.0837 
    105 H105      -75.8636   23.5681  -79.3979 H         1 UNK         0.0837 
    106 H106      -76.8138   25.3725  -77.9815 H         1 UNK         0.3020 
    107 H107      -76.5658   27.0783  -74.9515 H         1 UNK         0.1245 
    108 H108      -78.0311   28.1825  -77.3966 H         1 UNK         0.0781 
    109 H109      -78.8291   28.0720  -75.8634 H         1 UNK         0.0781 
    110 H110      -79.1174   29.9608  -74.4776 H         1 UNK         0.0836 
    111 H111      -77.9768   31.2333  -74.1463 H         1 UNK         0.0836 
    112 H112      -78.7019   25.7180  -76.3340 H         1 UNK         0.3022 
    113 H113      -77.9713   22.6724  -76.0112 H         1 UNK         0.0747 
    114 H114      -79.1435   21.7694  -74.0001 H         1 UNK         0.0793 
    115 H115      -77.5286   22.3134  -73.5824 H         1 UNK         0.0793 
    116 H116      -78.9225   23.3023  -73.1621 H         1 UNK         0.0793 
    117 H117      -80.1831   24.4634  -75.0988 H         1 UNK         0.3047 
    118 H118      -81.9255   24.1107  -78.0761 H         1 UNK         0.0822 
    119 H119      -83.8777   23.1070  -76.8972 H         1 UNK         0.0807 
    120 H120      -82.8198   22.4943  -75.6262 H         1 UNK         0.0807 
    121 H121      -82.6820   21.8758  -77.2660 H         1 UNK         0.0807 
    122 H122      -82.7364   24.9517  -75.4261 H         1 UNK         0.2946 
    123 H123      -81.1826   28.1276  -75.5124 H         1 UNK         0.1144 
    124 H124      -83.1720   28.5135  -76.9846 H         1 UNK         0.0793 
    125 H125      -83.4739   29.0343  -75.3365 H         1 UNK         0.0793 
    126 H126      -84.1571   27.5167  -75.9227 H         1 UNK         0.0793 
    127 H127      -83.0354   27.2807  -73.6470 H         1 UNK         0.2896 
@<TRIPOS>BOND
     1    1    2 1    
     2    1   67 1    
     3    1   68 1    
     4    1   69 1    
     5    2    3 2    
     6    2    4 am   BACKBONE|DICT|INTERRES
     7    4    5 1    
     8    4   70 1    
     9    5    6 1    
    10    5   65 1    
    11    5   71 1    
    12    6    7 1    
    13    6   72 1    
    14    6   73 1    
    15    7    8 1    
    16    8    9 1    
    17    8   74 1    
    18    8   75 1    
    19    9   10 ar   
    20    9   14 ar   
    21   10   11 ar   
    22   10   76 1    
    23   11   12 ar   
    24   11   48 1    
    25   12   13 ar   
    26   12   77 1    
    27   13   14 ar   
    28   13   15 1    
    29   14   78 1    
    30   15   16 1    
    31   15   79 1    
    32   15   80 1    
    33   16   17 1    
    34   17   18 1    
    35   17   81 1    
    36   17   82 1    
    37   18   19 1    
    38   18   22 1    
    39   18   83 1    
    40   19   20 am   BACKBONE|DICT|INTERRES
    41   19   21 2    
    42   20   84 1    
    43   20   85 1    
    44   22   23 am   BACKBONE|DICT|INTERRES
    45   22   86 1    
    46   23   24 2    
    47   23   25 1    
    48   25   26 1    
    49   25   27 1    
    50   25   87 1    
    51   26   88 1    
    52   26   89 1    
    53   26   90 1    
    54   27   28 am   BACKBONE|DICT|INTERRES
    55   27   91 1    
    56   28   29 2    
    57   28   30 1    
    58   30   31 1    
    59   30   32 1    
    60   30   92 1    
    61   31   93 1    
    62   31   94 1    
    63   31   95 1    
    64   32   33 am   BACKBONE|DICT|INTERRES
    65   32   96 1    
    66   33   34 2    
    67   33   35 1    
    68   35   36 1    
    69   35   37 1    
    70   35   97 1    
    71   36   98 1    
    72   36   99 1    
    73   36  100 1    
    74   37   38 am   BACKBONE|DICT|INTERRES
    75   37  101 1    
    76   38   39 2    
    77   38   40 1    
    78   40   41 1    
    79   40   42 1    
    80   40  102 1    
    81   41  103 1    
    82   41  104 1    
    83   41  105 1    
    84   42   43 am   BACKBONE|DICT|INTERRES
    85   42  106 1    
    86   43   44 2    
    87   43   45 1    
    88   45   46 1    
    89   45   49 1    
    90   45  107 1    
    91   46   47 1    
    92   46  108 1    
    93   46  109 1    
    94   47   48 1    
    95   48  110 1    
    96   48  111 1    
    97   49   50 am   BACKBONE|DICT|INTERRES
    98   49  112 1    
    99   50   51 2    
   100   50   52 1    
   101   52   53 1    
   102   52   54 1    
   103   52  113 1    
   104   53  114 1    
   105   53  115 1    
   106   53  116 1    
   107   54   55 am   BACKBONE|DICT|INTERRES
   108   54  117 1    
   109   55   56 2    
   110   55   57 1    
   111   57   58 1    
   112   57   59 1    
   113   57  118 1    
   114   58  119 1    
   115   58  120 1    
   116   58  121 1    
   117   59   60 am   BACKBONE|DICT|INTERRES
   118   59  122 1    
   119   60   61 2    
   120   60   62 1    
   121   62   63 1    
   122   62   64 1    
   123   62  123 1    
   124   63  124 1    
   125   63  125 1    
   126   63  126 1    
   127   64   65 am   BACKBONE|DICT|INTERRES
   128   64  127 1    
   129   65   66 2    
@<TRIPOS>SUBSTRUCTURE
     1 UNK         1 GROUP             0       ****    0 ROOT    
