@<TRIPOS>MOLECULE
3R135
127   129    1
SMALL
USER_CHARGES


@<TRIPOS>ATOM
      1 CA        -83.2688   23.7826  -70.4367 C.3       0 UNK        -0.1998 
      2 C         -82.7078   24.9412  -71.2467 C.2       0 UNK         0.4909 
      3 O         -83.4457   25.5784  -71.9996 O.2       0 UNK        -0.5240 
      4 N         -81.4046   25.2165  -71.1095 N.am      1 UNK        -0.4739 
      5 CA        -80.6806   26.2981  -71.7886 C.3       1 UNK         0.0864 
      6 C6        -79.3868   26.6885  -71.0231 C.3       11 UNK        -0.0881 
      7 S7        -79.7063   27.5711  -69.4621 S.3       11 UNK        -0.2682 
      8 C8        -80.2218   29.2272  -70.0388 C.3       11 UNK         0.0289 
      9 C9        -79.3104   29.8231  -71.1083 C.ar      11 UNK        -0.0687 
     10 C10       -79.7919   30.0277  -72.4066 C.ar      11 UNK        -0.0823 
     11 C11       -78.9825   30.6151  -73.3846 C.ar      11 UNK        -0.0830 
     12 C12       -77.6799   30.9972  -73.0508 C.ar      11 UNK        -0.1021 
     13 C13       -77.1729   30.7738  -71.7657 C.ar      11 UNK        -0.0753 
     14 C14       -77.9976   30.1918  -70.7970 C.ar      11 UNK        -0.0933 
     15 C15       -75.7555   31.2073  -71.4050 C.3       11 UNK         0.0166 
     16 S16       -74.5119   30.6836  -72.6320 S.3       11 UNK        -0.2615 
     17 C17       -74.3754   28.8903  -72.3110 C.3       11 UNK        -0.0865 
     18 CA        -72.9162   28.4551  -72.0064 C.3       10 UNK         0.0862 
     19 C         -72.8593   26.9363  -71.6693 C.2       10 UNK         0.5551 
     20 N         -72.3418   26.0769  -72.5410 N.am      10 UNK        -0.7319 
     21 O         -73.2922   26.5356  -70.5921 O.2       10 UNK        -0.5018 
     22 N         -71.9997   28.8704  -73.0782 N.am      10 UNK        -0.4509 
     23 C         -70.6621   28.8282  -73.0302 C.2       10 UNK         0.4899 
     24 O         -70.0234   28.5506  -72.0139 O.2       10 UNK        -0.4839 
     25 CA        -69.9158   29.1499  -74.3444 C.3       9 UNK         0.0222 
     26 CB        -68.5716   28.3993  -74.4547 C.3       9 UNK        -0.1966 
     27 N         -70.7281   28.9421  -75.5556 N.am      9 UNK        -0.4218 
     28 C         -71.3028   27.7982  -75.9618 C.2       9 UNK         0.5020 
     29 O         -71.2018   26.7277  -75.3557 O.2       9 UNK        -0.5274 
     30 CA        -72.1980   27.9179  -77.2082 C.3       8 UNK         0.0270 
     31 CB        -71.4460   28.4779  -78.4362 C.3       8 UNK        -0.1976 
     32 N         -72.9011   26.6698  -77.5173 N.am      8 UNK        -0.4313 
     33 C         -72.4249   25.5459  -78.0717 C.2       8 UNK         0.5041 
     34 O         -71.2686   25.3936  -78.4702 O.2       8 UNK        -0.5577 
     35 CA        -73.4248   24.3843  -78.2309 C.3       7 UNK         0.0284 
     36 CB        -73.3043   23.4118  -77.0471 C.3       7 UNK        -0.1958 
     37 N         -74.8194   24.8249  -78.3664 N.am      7 UNK        -0.4454 
     38 C         -75.3039   25.4978  -79.4216 C.2       7 UNK         0.5089 
     39 O         -74.6425   25.7632  -80.4261 O.2       7 UNK        -0.5125 
     40 CA        -76.7671   25.9690  -79.3447 C.3       6 UNK         0.0408 
     41 CB        -77.7218   24.8389  -79.7602 C.3       6 UNK        -0.1791 
     42 N         -77.1446   26.4730  -78.0216 N.am      6 UNK        -0.4762 
     43 C         -76.6522   27.5857  -77.4527 C.2       6 UNK         0.5007 
     44 O         -75.8481   28.3379  -78.0037 O.2       6 UNK        -0.5032 
     45 CA        -77.0883   27.8714  -75.9995 C.3       5 UNK         0.0783 
     46 C46       -78.5016   28.5055  -75.9278 C.3       11 UNK        -0.0857 
     47 S47       -78.4553   30.3147  -76.1355 S.3       11 UNK        -0.2512 
     48 C48       -79.5404   30.8842  -74.7805 C.3       11 UNK         0.0225 
     49 N         -77.0033   26.6667  -75.1755 N.am      5 UNK        -0.4615 
     50 C         -75.8900   25.9710  -74.9184 C.2       4 UNK         0.5053 
     51 O         -74.7694   26.3122  -75.2912 O.2       4 UNK        -0.5105 
     52 CA        -76.0728   24.6520  -74.1518 C.3       4 UNK         0.0263 
     53 CB        -76.1044   24.9009  -72.6368 C.3       4 UNK        -0.1981 
     54 N         -77.2951   23.9519  -74.5543 N.am      4 UNK        -0.4224 
     55 C         -77.4676   23.3402  -75.7335 C.2       3 UNK         0.4895 
     56 O         -76.5980   23.2717  -76.6014 O.2       3 UNK        -0.5091 
     57 CA        -78.8533   22.7271  -76.0008 C.3       3 UNK         0.0250 
     58 CB        -78.9792   21.3535  -75.3229 C.3       3 UNK        -0.1996 
     59 N         -79.9584   23.5912  -75.5737 N.am      3 UNK        -0.4254 
     60 C         -80.2538   24.7680  -76.1432 C.2       2 UNK         0.5004 
     61 O         -79.6286   25.2460  -77.0895 O.2       2 UNK        -0.5226 
     62 CA        -81.4133   25.5737  -75.5288 C.3       2 UNK         0.0269 
     63 CB        -82.7654   25.0259  -76.0125 C.3       2 UNK        -0.1926 
     64 N         -81.4263   25.6752  -74.0610 N.am      2 UNK        -0.4687 
     65 C         -80.3858   25.9694  -73.2689 C.2       1 UNK         0.5165 
     66 O         -79.2251   25.9989  -73.6710 O.2       1 UNK        -0.5079 
     67 H67       -84.0668   24.1343  -69.7834 H         1 UNK         0.0900 
     68 H68       -83.6817   23.0250  -71.1022 H         1 UNK         0.0900 
     69 H69       -82.5062   23.3112  -69.8170 H         1 UNK         0.0900 
     70 H70       -80.8476   24.6521  -70.4837 H         1 UNK         0.2959 
     71 H71       -81.3292   27.1757  -71.8153 H         1 UNK         0.1079 
     72 H72       -78.8003   25.7967  -70.7967 H         1 UNK         0.0837 
     73 H73       -78.7283   27.3169  -71.6248 H         1 UNK         0.0837 
     74 H74       -81.2493   29.1668  -70.4002 H         1 UNK         0.0685 
     75 H75       -80.2476   29.9005  -69.1809 H         1 UNK         0.0685 
     76 H76       -80.8078   29.7488  -72.6506 H         1 UNK         0.1434 
     77 H77       -77.0564   31.4708  -73.7968 H         1 UNK         0.1329 
     78 H78       -77.6251   30.0327  -69.7942 H         1 UNK         0.1335 
     79 H79       -75.4664   30.8321  -70.4220 H         1 UNK         0.0680 
     80 H80       -75.7368   32.2956  -71.3364 H         1 UNK         0.0680 
     81 H81       -75.0346   28.6196  -71.4836 H         1 UNK         0.1032 
     82 H82       -74.7586   28.3587  -73.1841 H         1 UNK         0.1032 
     83 H83       -72.5989   28.9785  -71.1024 H         1 UNK         0.0461 
     84 H84       -71.9923   26.3923  -73.4392 H         1 UNK         0.3453 
     85 H85       -72.3031   25.0992  -72.3049 H         1 UNK         0.3453 
     86 H86       -72.4372   29.1303  -73.9483 H         1 UNK         0.2984 
     87 H87       -69.6943   30.2174  -74.3083 H         1 UNK         0.0554 
     88 H88       -67.9057   28.6618  -73.6317 H         1 UNK         0.0847 
     89 H89       -68.0522   28.6479  -75.3801 H         1 UNK         0.0847 
     90 H90       -68.7092   27.3178  -74.4276 H         1 UNK         0.0847 
     91 H91       -70.8908   29.7727  -76.1087 H         1 UNK         0.3141 
     92 H92       -72.9882   28.6260  -76.9534 H         1 UNK         0.0743 
     93 H93       -70.5463   27.9038  -78.6599 H         1 UNK         0.0784 
     94 H94       -72.0785   28.4687  -79.3243 H         1 UNK         0.0784 
     95 H95       -71.1366   29.5110  -78.2769 H         1 UNK         0.0784 
     96 H96       -73.8306   26.6079  -77.1148 H         1 UNK         0.3213 
     97 H97       -73.1574   23.8451  -79.1421 H         1 UNK         0.0855 
     98 H98       -73.5486   23.8984  -76.1028 H         1 UNK         0.0814 
     99 H99       -72.2864   23.0294  -76.9603 H         1 UNK         0.0814 
    100 H100      -73.9648   22.5529  -77.1662 H         1 UNK         0.0814 
    101 H101      -75.4558   24.5692  -77.6171 H         1 UNK         0.3105 
    102 H102      -76.8876   26.7886  -80.0562 H         1 UNK         0.0547 
    103 H103      -77.4698   24.4579  -80.7507 H         1 UNK         0.0837 
    104 H104      -77.6806   23.9988  -79.0662 H         1 UNK         0.0837 
    105 H105      -78.7540   25.1873  -79.8001 H         1 UNK         0.0837 
    106 H106      -77.8485   25.9383  -77.5185 H         1 UNK         0.3020 
    107 H107      -76.3669   28.5750  -75.5768 H         1 UNK         0.1245 
    108 H108      -78.9516   28.2973  -74.9569 H         1 UNK         0.0781 
    109 H109      -79.1829   28.0719  -76.6624 H         1 UNK         0.0781 
    110 H110      -80.5213   30.4221  -74.9036 H         1 UNK         0.0836 
    111 H111      -79.6944   31.9586  -74.8883 H         1 UNK         0.0836 
    112 H112      -77.8749   26.3374  -74.7634 H         1 UNK         0.3022 
    113 H113      -75.2198   24.0083  -74.3745 H         1 UNK         0.0747 
    114 H114      -76.2464   23.9734  -72.0823 H         1 UNK         0.0793 
    115 H115      -75.1662   25.3366  -72.2988 H         1 UNK         0.0793 
    116 H116      -76.9001   25.5893  -72.3540 H         1 UNK         0.0793 
    117 H117      -78.0932   24.0498  -73.9418 H         1 UNK         0.3047 
    118 H118      -78.9422   22.5811  -77.0797 H         1 UNK         0.0822 
    119 H119      -79.9197   20.8676  -75.5834 H         1 UNK         0.0807 
    120 H120      -78.9301   21.4301  -74.2360 H         1 UNK         0.0807 
    121 H121      -78.1746   20.6880  -75.6395 H         1 UNK         0.0807 
    122 H122      -80.5149   23.2829  -74.7896 H         1 UNK         0.2946 
    123 H123      -81.3126   26.5932  -75.9068 H         1 UNK         0.1144 
    124 H124      -83.5872   25.6765  -75.7123 H         1 UNK         0.0793 
    125 H125      -82.9640   24.0305  -75.6134 H         1 UNK         0.0793 
    126 H126      -82.7932   24.9539  -77.1009 H         1 UNK         0.0793 
    127 H127      -82.3370   25.6420  -73.6110 H         1 UNK         0.2896 
@<TRIPOS>BOND
     1    1    2 1    
     2    1   67 1    
     3    1   68 1    
     4    1   69 1    
     5    2    3 2    
     6    2    4 am   BACKBONE|DICT|INTERRES
     7    4    5 1    
     8    4   70 1    
     9    5    6 1    
    10    5   65 1    
    11    5   71 1    
    12    6    7 1    
    13    6   72 1    
    14    6   73 1    
    15    7    8 1    
    16    8    9 1    
    17    8   74 1    
    18    8   75 1    
    19    9   10 ar   
    20    9   14 ar   
    21   10   11 ar   
    22   10   76 1    
    23   11   12 ar   
    24   11   48 1    
    25   12   13 ar   
    26   12   77 1    
    27   13   14 ar   
    28   13   15 1    
    29   14   78 1    
    30   15   16 1    
    31   15   79 1    
    32   15   80 1    
    33   16   17 1    
    34   17   18 1    
    35   17   81 1    
    36   17   82 1    
    37   18   19 1    
    38   18   22 1    
    39   18   83 1    
    40   19   20 am   BACKBONE|DICT|INTERRES
    41   19   21 2    
    42   20   84 1    
    43   20   85 1    
    44   22   23 am   BACKBONE|DICT|INTERRES
    45   22   86 1    
    46   23   24 2    
    47   23   25 1    
    48   25   26 1    
    49   25   27 1    
    50   25   87 1    
    51   26   88 1    
    52   26   89 1    
    53   26   90 1    
    54   27   28 am   BACKBONE|DICT|INTERRES
    55   27   91 1    
    56   28   29 2    
    57   28   30 1    
    58   30   31 1    
    59   30   32 1    
    60   30   92 1    
    61   31   93 1    
    62   31   94 1    
    63   31   95 1    
    64   32   33 am   BACKBONE|DICT|INTERRES
    65   32   96 1    
    66   33   34 2    
    67   33   35 1    
    68   35   36 1    
    69   35   37 1    
    70   35   97 1    
    71   36   98 1    
    72   36   99 1    
    73   36  100 1    
    74   37   38 am   BACKBONE|DICT|INTERRES
    75   37  101 1    
    76   38   39 2    
    77   38   40 1    
    78   40   41 1    
    79   40   42 1    
    80   40  102 1    
    81   41  103 1    
    82   41  104 1    
    83   41  105 1    
    84   42   43 am   BACKBONE|DICT|INTERRES
    85   42  106 1    
    86   43   44 2    
    87   43   45 1    
    88   45   46 1    
    89   45   49 1    
    90   45  107 1    
    91   46   47 1    
    92   46  108 1    
    93   46  109 1    
    94   47   48 1    
    95   48  110 1    
    96   48  111 1    
    97   49   50 am   BACKBONE|DICT|INTERRES
    98   49  112 1    
    99   50   51 2    
   100   50   52 1    
   101   52   53 1    
   102   52   54 1    
   103   52  113 1    
   104   53  114 1    
   105   53  115 1    
   106   53  116 1    
   107   54   55 am   BACKBONE|DICT|INTERRES
   108   54  117 1    
   109   55   56 2    
   110   55   57 1    
   111   57   58 1    
   112   57   59 1    
   113   57  118 1    
   114   58  119 1    
   115   58  120 1    
   116   58  121 1    
   117   59   60 am   BACKBONE|DICT|INTERRES
   118   59  122 1    
   119   60   61 2    
   120   60   62 1    
   121   62   63 1    
   122   62   64 1    
   123   62  123 1    
   124   63  124 1    
   125   63  125 1    
   126   63  126 1    
   127   64   65 am   BACKBONE|DICT|INTERRES
   128   64  127 1    
   129   65   66 2    
@<TRIPOS>SUBSTRUCTURE
     1 UNK         1 GROUP             0       ****    0 ROOT    
