@<TRIPOS>MOLECULE
3R135
127   129    1
SMALL
USER_CHARGES


@<TRIPOS>ATOM
      1 CA        -77.0430   28.5853  -67.7864 C.3       0 UNK        -0.1998 
      2 C         -78.2676   27.7599  -68.1509 C.2       0 UNK         0.4909 
      3 O         -79.0256   27.3607  -67.2664 O.2       0 UNK        -0.5240 
      4 N         -78.4576   27.4960  -69.4478 N.am      1 UNK        -0.4739 
      5 CA        -79.5273   26.6495  -69.9906 C.3       1 UNK         0.0864 
      6 C6        -79.9893   27.1473  -71.3818 C.3       11 UNK        -0.0881 
      7 S7        -80.7972   28.7777  -71.2509 S.3       11 UNK        -0.2682 
      8 C8        -81.5491   28.9464  -72.9055 C.3       11 UNK         0.0289 
      9 C9        -80.6412   29.4887  -74.0129 C.ar      11 UNK        -0.0687 
     10 C10       -81.1942   29.6428  -75.2879 C.ar      11 UNK        -0.0823 
     11 C11       -80.4389   30.1605  -76.3433 C.ar      11 UNK        -0.0830 
     12 C12       -79.1144   30.5392  -76.1186 C.ar      11 UNK        -0.1021 
     13 C13       -78.5339   30.3651  -74.8603 C.ar      11 UNK        -0.0753 
     14 C14       -79.3010   29.8501  -73.8101 C.ar      11 UNK        -0.0933 
     15 C15       -77.0752   30.7366  -74.6438 C.3       11 UNK         0.0166 
     16 S16       -75.9527   29.4880  -75.3480 S.3       11 UNK        -0.2615 
     17 C17       -76.0789   28.1438  -74.1166 C.3       11 UNK        -0.0865 
     18 CA        -75.0273   28.2584  -72.9790 C.3       10 UNK         0.0862 
     19 C         -75.2525   27.1418  -71.9174 C.2       10 UNK         0.5551 
     20 N         -74.3133   26.2323  -71.6899 N.am      10 UNK        -0.7319 
     21 O         -76.3044   27.1027  -71.2862 O.2       10 UNK        -0.5018 
     22 N         -73.6627   28.3435  -73.5223 N.am      10 UNK        -0.4509 
     23 C         -72.5419   28.6524  -72.8612 C.2       10 UNK         0.4899 
     24 O         -72.5160   28.9630  -71.6697 O.2       10 UNK        -0.4839 
     25 CA        -71.2280   28.5690  -73.6741 C.3       9 UNK         0.0222 
     26 CB        -69.9785   28.8053  -72.8047 C.3       9 UNK        -0.1966 
     27 N         -71.0818   27.2881  -74.3825 N.am      9 UNK        -0.4218 
     28 C         -71.7646   26.9318  -75.4784 C.2       9 UNK         0.5020 
     29 O         -72.5640   27.6848  -76.0470 O.2       9 UNK        -0.5274 
     30 CA        -71.5884   25.4938  -75.9928 C.3       8 UNK         0.0270 
     31 CB        -71.6761   24.4413  -74.8689 C.3       8 UNK        -0.1976 
     32 N         -72.6547   25.2894  -76.9622 N.am      8 UNK        -0.4313 
     33 C         -72.7104   24.4207  -77.9730 C.2       8 UNK         0.5041 
     34 O         -71.8817   23.5307  -78.1680 O.2       8 UNK        -0.5577 
     35 CA        -73.8920   24.5990  -78.9458 C.3       7 UNK         0.0284 
     36 CB        -75.0007   23.5789  -78.6450 C.3       7 UNK        -0.1958 
     37 N         -74.4509   25.9584  -78.8985 N.am      7 UNK        -0.4454 
     38 C         -73.8720   27.0270  -79.4696 C.2       7 UNK         0.5089 
     39 O         -72.8629   26.9461  -80.1722 O.2       7 UNK        -0.5125 
     40 CA        -74.4786   28.4196  -79.1866 C.3       6 UNK         0.0408 
     41 CB        -74.3429   29.3768  -80.3899 C.3       6 UNK        -0.1791 
     42 N         -75.8578   28.4005  -78.6851 N.am      6 UNK        -0.4762 
     43 C         -76.9499   27.9575  -79.3259 C.2       6 UNK         0.5007 
     44 O         -76.9426   27.4947  -80.4683 O.2       6 UNK        -0.5032 
     45 CA        -78.2745   28.0121  -78.5360 C.3       5 UNK         0.0783 
     46 C46       -79.3797   28.7062  -79.3777 C.3       11 UNK        -0.0857 
     47 S47       -81.0367   28.7079  -78.6091 S.3       11 UNK        -0.2512 
     48 C48       -81.0604   30.2981  -77.7235 C.3       11 UNK         0.0225 
     49 N         -78.6910   26.6957  -78.0416 N.am      5 UNK        -0.4615 
     50 C         -77.9521   25.8348  -77.3304 C.2       4 UNK         0.5053 
     51 O         -76.7528   25.9870  -77.0805 O.2       4 UNK        -0.5105 
     52 CA        -78.6913   24.5798  -76.8320 C.3       4 UNK         0.0263 
     53 CB        -78.9661   23.6075  -77.9921 C.3       4 UNK        -0.1981 
     54 N         -77.9366   23.8751  -75.7948 N.am      4 UNK        -0.4224 
     55 C         -77.7345   24.3290  -74.5517 C.2       3 UNK         0.4895 
     56 O         -78.2494   25.3503  -74.0877 O.2       3 UNK        -0.5091 
     57 CA        -76.7682   23.5023  -73.6981 C.3       3 UNK         0.0250 
     58 CB        -75.3097   23.7713  -74.1096 C.3       3 UNK        -0.1996 
     59 N         -76.9488   23.8529  -72.2931 N.am      3 UNK        -0.4254 
     60 C         -76.9379   22.9908  -71.2704 C.2       2 UNK         0.5004 
     61 O         -76.7208   21.7846  -71.3946 O.2       2 UNK        -0.5226 
     62 CA        -77.2060   23.5571  -69.8657 C.3       2 UNK         0.0269 
     63 CB        -75.9084   23.5997  -69.0413 C.3       2 UNK        -0.1926 
     64 N         -77.7940   24.8980  -69.8879 N.am      2 UNK        -0.4687 
     65 C         -79.0991   25.1669  -70.0368 C.2       1 UNK         0.5165 
     66 O         -79.9561   24.2946  -70.1856 O.2       1 UNK        -0.5079 
     67 H67       -76.4391   28.8244  -68.6621 H         1 UNK         0.0900 
     68 H68       -77.3469   29.5205  -67.3170 H         1 UNK         0.0900 
     69 H69       -76.4165   28.0372  -67.0833 H         1 UNK         0.0900 
     70 H70       -77.7616   27.7895  -70.1262 H         1 UNK         0.2959 
     71 H71       -80.3884   26.6906  -69.3194 H         1 UNK         0.1079 
     72 H72       -80.7021   26.4477  -71.8231 H         1 UNK         0.0837 
     73 H73       -79.1492   27.2114  -72.0766 H         1 UNK         0.0837 
     74 H74       -81.9589   27.9833  -73.2134 H         1 UNK         0.0685 
     75 H75       -82.4005   29.6215  -72.8081 H         1 UNK         0.0685 
     76 H76       -82.2227   29.3564  -75.4625 H         1 UNK         0.1434 
     77 H77       -78.5238   30.9448  -76.9288 H         1 UNK         0.1329 
     78 H78       -78.8414   29.7357  -72.8394 H         1 UNK         0.1335 
     79 H79       -76.8734   31.6977  -75.1190 H         1 UNK         0.0680 
     80 H80       -76.8573   30.8695  -73.5829 H         1 UNK         0.0680 
     81 H81       -77.0918   28.1183  -73.7122 H         1 UNK         0.1032 
     82 H82       -75.9571   27.1974  -74.6472 H         1 UNK         0.1032 
     83 H83       -75.2097   29.1983  -72.4555 H         1 UNK         0.0461 
     84 H84       -73.4352   26.2816  -72.1780 H         1 UNK         0.3453 
     85 H85       -74.4637   25.5249  -70.9923 H         1 UNK         0.3453 
     86 H86       -73.5666   28.1351  -74.5123 H         1 UNK         0.2984 
     87 H87       -71.2663   29.3692  -74.4164 H         1 UNK         0.0554 
     88 H88       -70.0241   29.7761  -72.3091 H         1 UNK         0.0847 
     89 H89       -69.0685   28.7956  -73.4049 H         1 UNK         0.0847 
     90 H90       -69.8773   28.0471  -72.0271 H         1 UNK         0.0847 
     91 H91       -70.4648   26.6101  -73.9586 H         1 UNK         0.3141 
     92 H92       -70.6245   25.4226  -76.5003 H         1 UNK         0.0743 
     93 H93       -72.5625   24.5841  -74.2513 H         1 UNK         0.0784 
     94 H94       -71.7125   23.4292  -75.2724 H         1 UNK         0.0784 
     95 H95       -70.8071   24.4879  -74.2123 H         1 UNK         0.0784 
     96 H96       -73.3411   26.0356  -76.9421 H         1 UNK         0.3213 
     97 H97       -73.5201   24.4084  -79.9549 H         1 UNK         0.0855 
     98 H98       -75.4056   23.7069  -77.6412 H         1 UNK         0.0814 
     99 H99       -74.6212   22.5587  -78.7158 H         1 UNK         0.0814 
    100 H100      -75.8214   23.6701  -79.3561 H         1 UNK         0.0814 
    101 H101      -75.2805   26.0959  -78.3246 H         1 UNK         0.3105 
    102 H102      -73.8815   28.8357  -78.3736 H         1 UNK         0.0547 
    103 H103      -73.2961   29.5225  -80.6590 H         1 UNK         0.0837 
    104 H104      -74.8526   28.9925  -81.2737 H         1 UNK         0.0837 
    105 H105      -74.7552   30.3600  -80.1642 H         1 UNK         0.0837 
    106 H106      -75.9600   28.6986  -77.7221 H         1 UNK         0.3020 
    107 H107      -78.1020   28.6166  -77.6464 H         1 UNK         0.1245 
    108 H108      -79.4900   28.2049  -80.3415 H         1 UNK         0.0781 
    109 H109      -79.0909   29.7326  -79.6111 H         1 UNK         0.0781 
    110 H110      -82.0959   30.6271  -77.6230 H         1 UNK         0.0836 
    111 H111      -80.5562   31.0693  -78.3077 H         1 UNK         0.0836 
    112 H112      -79.6617   26.4734  -78.2080 H         1 UNK         0.3022 
    113 H113      -79.6448   24.8963  -76.4032 H         1 UNK         0.0747 
    114 H114      -79.5259   22.7355  -77.6529 H         1 UNK         0.0793 
    115 H115      -78.0433   23.2536  -78.4517 H         1 UNK         0.0793 
    116 H116      -79.5583   24.0813  -78.7761 H         1 UNK         0.0793 
    117 H117      -77.4486   23.0422  -76.0884 H         1 UNK         0.3047 
    118 H118      -77.0009   22.4459  -73.8503 H         1 UNK         0.0822 
    119 H119      -74.6110   23.2374  -73.4655 H         1 UNK         0.0807 
    120 H120      -75.0684   24.8333  -74.0601 H         1 UNK         0.0807 
    121 H121      -75.1196   23.4453  -75.1325 H         1 UNK         0.0807 
    122 H122      -77.1951   24.8199  -72.1206 H         1 UNK         0.2946 
    123 H123      -77.9011   22.8739  -69.3718 H         1 UNK         0.1144 
    124 H124      -76.0996   23.9295  -68.0199 H         1 UNK         0.0793 
    125 H125      -75.1712   24.2731  -69.4783 H         1 UNK         0.0793 
    126 H126      -75.4513   22.6110  -68.9801 H         1 UNK         0.0793 
    127 H127      -77.1569   25.6833  -69.8358 H         1 UNK         0.2896 
@<TRIPOS>BOND
     1    1    2 1    
     2    1   67 1    
     3    1   68 1    
     4    1   69 1    
     5    2    3 2    
     6    2    4 am   BACKBONE|DICT|INTERRES
     7    4    5 1    
     8    4   70 1    
     9    5    6 1    
    10    5   65 1    
    11    5   71 1    
    12    6    7 1    
    13    6   72 1    
    14    6   73 1    
    15    7    8 1    
    16    8    9 1    
    17    8   74 1    
    18    8   75 1    
    19    9   10 ar   
    20    9   14 ar   
    21   10   11 ar   
    22   10   76 1    
    23   11   12 ar   
    24   11   48 1    
    25   12   13 ar   
    26   12   77 1    
    27   13   14 ar   
    28   13   15 1    
    29   14   78 1    
    30   15   16 1    
    31   15   79 1    
    32   15   80 1    
    33   16   17 1    
    34   17   18 1    
    35   17   81 1    
    36   17   82 1    
    37   18   19 1    
    38   18   22 1    
    39   18   83 1    
    40   19   20 am   BACKBONE|DICT|INTERRES
    41   19   21 2    
    42   20   84 1    
    43   20   85 1    
    44   22   23 am   BACKBONE|DICT|INTERRES
    45   22   86 1    
    46   23   24 2    
    47   23   25 1    
    48   25   26 1    
    49   25   27 1    
    50   25   87 1    
    51   26   88 1    
    52   26   89 1    
    53   26   90 1    
    54   27   28 am   BACKBONE|DICT|INTERRES
    55   27   91 1    
    56   28   29 2    
    57   28   30 1    
    58   30   31 1    
    59   30   32 1    
    60   30   92 1    
    61   31   93 1    
    62   31   94 1    
    63   31   95 1    
    64   32   33 am   BACKBONE|DICT|INTERRES
    65   32   96 1    
    66   33   34 2    
    67   33   35 1    
    68   35   36 1    
    69   35   37 1    
    70   35   97 1    
    71   36   98 1    
    72   36   99 1    
    73   36  100 1    
    74   37   38 am   BACKBONE|DICT|INTERRES
    75   37  101 1    
    76   38   39 2    
    77   38   40 1    
    78   40   41 1    
    79   40   42 1    
    80   40  102 1    
    81   41  103 1    
    82   41  104 1    
    83   41  105 1    
    84   42   43 am   BACKBONE|DICT|INTERRES
    85   42  106 1    
    86   43   44 2    
    87   43   45 1    
    88   45   46 1    
    89   45   49 1    
    90   45  107 1    
    91   46   47 1    
    92   46  108 1    
    93   46  109 1    
    94   47   48 1    
    95   48  110 1    
    96   48  111 1    
    97   49   50 am   BACKBONE|DICT|INTERRES
    98   49  112 1    
    99   50   51 2    
   100   50   52 1    
   101   52   53 1    
   102   52   54 1    
   103   52  113 1    
   104   53  114 1    
   105   53  115 1    
   106   53  116 1    
   107   54   55 am   BACKBONE|DICT|INTERRES
   108   54  117 1    
   109   55   56 2    
   110   55   57 1    
   111   57   58 1    
   112   57   59 1    
   113   57  118 1    
   114   58  119 1    
   115   58  120 1    
   116   58  121 1    
   117   59   60 am   BACKBONE|DICT|INTERRES
   118   59  122 1    
   119   60   61 2    
   120   60   62 1    
   121   62   63 1    
   122   62   64 1    
   123   62  123 1    
   124   63  124 1    
   125   63  125 1    
   126   63  126 1    
   127   64   65 am   BACKBONE|DICT|INTERRES
   128   64  127 1    
   129   65   66 2    
@<TRIPOS>SUBSTRUCTURE
     1 UNK         1 GROUP             0       ****    0 ROOT    
