@<TRIPOS>MOLECULE
3R135
127   129    1
SMALL
USER_CHARGES


@<TRIPOS>ATOM
      1 CA        -75.8776   29.3963  -75.8341 C.3       0 UNK        -0.1998 
      2 C         -76.6711   28.2493  -75.2326 C.2       0 UNK         0.4909 
      3 O         -76.2183   27.1049  -75.2686 O.2       0 UNK        -0.5240 
      4 N         -77.8661   28.5430  -74.6997 N.am      1 UNK        -0.4739 
      5 CA        -78.7818   27.5482  -74.1315 C.3       1 UNK         0.0864 
      6 C6        -79.9793   28.2136  -73.4079 C.3       11 UNK        -0.0881 
      7 S7        -80.8025   27.0814  -72.2357 S.3       11 UNK        -0.2682 
      8 C8        -80.0562   27.5821  -70.6494 C.3       11 UNK         0.0289 
      9 C9        -78.5472   27.3804  -70.6415 C.ar      11 UNK        -0.0687 
     10 C10       -78.0124   26.0893  -70.6046 C.ar      11 UNK        -0.0823 
     11 C11       -76.6273   25.8887  -70.6361 C.ar      11 UNK        -0.0830 
     12 C12       -75.7786   26.9994  -70.6811 C.ar      11 UNK        -0.1021 
     13 C13       -76.3003   28.2966  -70.6867 C.ar      11 UNK        -0.0753 
     14 C14       -77.6856   28.4814  -70.6747 C.ar      11 UNK        -0.0933 
     15 C15       -75.3660   29.4967  -70.6647 C.3       11 UNK         0.0166 
     16 S16       -75.1707   30.2346  -72.3132 S.3       11 UNK        -0.2615 
     17 C17       -73.7764   31.3635  -71.9806 C.3       11 UNK        -0.0865 
     18 CA        -73.4416   32.3121  -73.1620 C.3       10 UNK         0.0862 
     19 C         -72.2674   33.2585  -72.7685 C.2       10 UNK         0.5551 
     20 N         -71.0718   33.1113  -73.3300 N.am      10 UNK        -0.7319 
     21 O         -72.4490   34.1415  -71.9340 O.2       10 UNK        -0.5018 
     22 N         -73.2267   31.5667  -74.4102 N.am      10 UNK        -0.4509 
     23 C         -73.1326   32.1041  -75.6339 C.2       10 UNK         0.4899 
     24 O         -73.3483   33.2923  -75.8763 O.2       10 UNK        -0.4839 
     25 CA        -72.7213   31.1505  -76.7766 C.3       9 UNK         0.0222 
     26 CB        -71.9253   31.8695  -77.8862 C.3       9 UNK        -0.1966 
     27 N         -72.0027   29.9551  -76.3089 N.am      9 UNK        -0.4218 
     28 C         -70.8406   29.9033  -75.6410 C.2       9 UNK         0.5020 
     29 O         -70.1795   30.9029  -75.3531 O.2       9 UNK        -0.5274 
     30 CA        -70.3288   28.5219  -75.1787 C.3       8 UNK         0.0270 
     31 CB        -70.3516   28.4289  -73.6382 C.3       8 UNK        -0.1976 
     32 N         -70.9822   27.3421  -75.7775 N.am      8 UNK        -0.4313 
     33 C         -72.2585   26.9482  -75.6614 C.2       8 UNK         0.5041 
     34 O         -73.1224   27.5995  -75.0757 O.2       8 UNK        -0.5577 
     35 CA        -72.6217   25.6107  -76.3135 C.3       7 UNK         0.0284 
     36 CB        -72.2094   24.4351  -75.4088 C.3       7 UNK        -0.1958 
     37 N         -74.0617   25.5371  -76.5634 N.am      7 UNK        -0.4454 
     38 C         -74.6203   24.8894  -77.5932 C.2       7 UNK         0.5089 
     39 O         -73.9698   24.3666  -78.5012 O.2       7 UNK        -0.5125 
     40 CA        -76.1598   24.7653  -77.5770 C.3       6 UNK         0.0408 
     41 CB        -76.7051   23.9430  -78.7651 C.3       6 UNK        -0.1791 
     42 N         -76.6618   24.2210  -76.3066 N.am      6 UNK        -0.4762 
     43 C         -76.3041   23.0643  -75.7251 C.2       6 UNK         0.5007 
     44 O         -75.5448   22.2370  -76.2309 O.2       6 UNK        -0.5032 
     45 CA        -76.9023   22.7799  -74.3405 C.3       5 UNK         0.0783 
     46 C46       -76.3739   23.7729  -73.2752 C.3       11 UNK        -0.0857 
     47 S47       -76.8888   23.2608  -71.6039 S.3       11 UNK        -0.2512 
     48 C48       -76.0301   24.4858  -70.5626 C.3       11 UNK         0.0225 
     49 N         -78.3652   22.7704  -74.4082 N.am      5 UNK        -0.4615 
     50 C         -79.1047   21.6735  -74.5987 C.2       4 UNK         0.5053 
     51 O         -78.6274   20.5647  -74.8425 O.2       4 UNK        -0.5105 
     52 CA        -80.6265   21.8054  -74.4491 C.3       4 UNK         0.0263 
     53 CB        -81.0268   21.7101  -72.9643 C.3       4 UNK        -0.1981 
     54 N         -81.1819   23.0284  -75.0397 N.am      4 UNK        -0.4224 
     55 C         -82.4374   23.1116  -75.5108 C.2       3 UNK         0.4895 
     56 O         -83.2206   22.1603  -75.5261 O.2       3 UNK        -0.5091 
     57 CA        -82.9403   24.4701  -76.0394 C.3       3 UNK         0.0250 
     58 CB        -83.8286   25.1537  -74.9863 C.3       3 UNK        -0.1996 
     59 N         -81.8773   25.3945  -76.4265 N.am      3 UNK        -0.4254 
     60 C         -81.0433   25.2291  -77.4607 C.2       2 UNK         0.5004 
     61 O         -81.1381   24.3116  -78.2759 O.2       2 UNK        -0.5226 
     62 CA        -79.8917   26.2428  -77.6002 C.3       2 UNK         0.0269 
     63 CB        -80.1608   27.2093  -78.7646 C.3       2 UNK        -0.1926 
     64 N         -79.5764   27.0246  -76.3955 N.am      2 UNK        -0.4687 
     65 C         -79.2424   26.5306  -75.1927 C.2       1 UNK         0.5165 
     66 O         -79.2477   25.3296  -74.9234 O.2       1 UNK        -0.5079 
     67 H67       -75.6629   29.1945  -76.8828 H         1 UNK         0.0900 
     68 H68       -74.9335   29.4972  -75.3038 H         1 UNK         0.0900 
     69 H69       -76.4084   30.3454  -75.7656 H         1 UNK         0.0900 
     70 H70       -78.1808   29.5024  -74.6844 H         1 UNK         0.2959 
     71 H71       -78.2005   26.9896  -73.3948 H         1 UNK         0.1079 
     72 H72       -79.6435   29.0922  -72.8551 H         1 UNK         0.0837 
     73 H73       -80.7184   28.5839  -74.1210 H         1 UNK         0.0837 
     74 H74       -80.3121   28.6226  -70.4436 H         1 UNK         0.0685 
     75 H75       -80.5027   26.9928  -69.8472 H         1 UNK         0.0685 
     76 H76       -78.6807   25.2400  -70.5636 H         1 UNK         0.1434 
     77 H77       -74.7064   26.8567  -70.6890 H         1 UNK         0.1329 
     78 H78       -78.0895   29.4844  -70.6901 H         1 UNK         0.1335 
     79 H79       -75.7493   30.2509  -69.9758 H         1 UNK         0.0680 
     80 H80       -74.3872   29.2012  -70.2834 H         1 UNK         0.0680 
     81 H81       -72.9039   30.7599  -71.7221 H         1 UNK         0.1032 
     82 H82       -74.0180   31.9470  -71.0896 H         1 UNK         0.1032 
     83 H83       -74.3098   32.9537  -73.3246 H         1 UNK         0.0461 
     84 H84       -70.9044   32.3879  -74.0195 H         1 UNK         0.3453 
     85 H85       -70.3242   33.7324  -73.0650 H         1 UNK         0.3453 
     86 H86       -73.0553   30.5775  -74.3061 H         1 UNK         0.2984 
     87 H87       -73.6500   30.7919  -77.2210 H         1 UNK         0.0554 
     88 H88       -72.5158   32.6670  -78.3388 H         1 UNK         0.0847 
     89 H89       -71.6478   31.1821  -78.6851 H         1 UNK         0.0847 
     90 H90       -71.0114   32.3227  -77.5008 H         1 UNK         0.0847 
     91 H91       -72.5114   29.0801  -76.3717 H         1 UNK         0.3141 
     92 H92       -69.2857   28.4727  -75.4948 H         1 UNK         0.0743 
     93 H93       -69.7726   29.2363  -73.1876 H         1 UNK         0.0784 
     94 H94       -71.3648   28.4981  -73.2405 H         1 UNK         0.0784 
     95 H95       -69.9193   27.4904  -73.2913 H         1 UNK         0.0784 
     96 H96       -70.3628   26.7499  -76.3148 H         1 UNK         0.3213 
     97 H97       -72.0807   25.5454  -77.2602 H         1 UNK         0.0855 
     98 H98       -71.1378   24.4471  -75.2060 H         1 UNK         0.0814 
     99 H99       -72.4395   23.4767  -75.8751 H         1 UNK         0.0814 
    100 H100      -72.7252   24.4702  -74.4481 H         1 UNK         0.0814 
    101 H101      -74.6544   26.0416  -75.9042 H         1 UNK         0.3105 
    102 H102      -76.5543   25.7785  -77.6626 H         1 UNK         0.0547 
    103 H103      -76.4470   24.4136  -79.7145 H         1 UNK         0.0837 
    104 H104      -76.2919   22.9339  -78.7815 H         1 UNK         0.0837 
    105 H105      -77.7902   23.8527  -78.7313 H         1 UNK         0.0837 
    106 H106      -77.2757   24.8350  -75.7851 H         1 UNK         0.3020 
    107 H107      -76.5528   21.7851  -74.0522 H         1 UNK         0.1245 
    108 H108      -76.7336   24.7866  -73.4633 H         1 UNK         0.0781 
    109 H109      -75.2832   23.8201  -73.2983 H         1 UNK         0.0781 
    110 H110      -74.9734   24.4980  -70.8346 H         1 UNK         0.0836 
    111 H111      -76.0753   24.1497  -69.5260 H         1 UNK         0.0836 
    112 H112      -78.8140   23.6729  -74.2856 H         1 UNK         0.3022 
    113 H113      -81.0512   20.9436  -74.9693 H         1 UNK         0.0747 
    114 H114      -80.6076   20.8156  -72.5013 H         1 UNK         0.0793 
    115 H115      -80.6689   22.5704  -72.3970 H         1 UNK         0.0793 
    116 H116      -82.1090   21.6569  -72.8455 H         1 UNK         0.0793 
    117 H117      -80.5815   23.8460  -75.0782 H         1 UNK         0.3047 
    118 H118      -83.5481   24.2689  -76.9242 H         1 UNK         0.0822 
    119 H119      -84.2646   26.0758  -75.3712 H         1 UNK         0.0807 
    120 H120      -83.2679   25.3975  -74.0826 H         1 UNK         0.0807 
    121 H121      -84.6554   24.5057  -74.6916 H         1 UNK         0.0807 
    122 H122      -81.7144   26.1798  -75.8138 H         1 UNK         0.2946 
    123 H123      -79.0031   25.6604  -77.8425 H         1 UNK         0.1144 
    124 H124      -79.2998   27.8497  -78.9573 H         1 UNK         0.0793 
    125 H125      -81.0205   27.8502  -78.5652 H         1 UNK         0.0793 
    126 H126      -80.3673   26.6646  -79.6872 H         1 UNK         0.0793 
    127 H127      -79.5275   28.0260  -76.5171 H         1 UNK         0.2896 
@<TRIPOS>BOND
     1    1    2 1    
     2    1   67 1    
     3    1   68 1    
     4    1   69 1    
     5    2    3 2    
     6    2    4 am   BACKBONE|DICT|INTERRES
     7    4    5 1    
     8    4   70 1    
     9    5    6 1    
    10    5   65 1    
    11    5   71 1    
    12    6    7 1    
    13    6   72 1    
    14    6   73 1    
    15    7    8 1    
    16    8    9 1    
    17    8   74 1    
    18    8   75 1    
    19    9   10 ar   
    20    9   14 ar   
    21   10   11 ar   
    22   10   76 1    
    23   11   12 ar   
    24   11   48 1    
    25   12   13 ar   
    26   12   77 1    
    27   13   14 ar   
    28   13   15 1    
    29   14   78 1    
    30   15   16 1    
    31   15   79 1    
    32   15   80 1    
    33   16   17 1    
    34   17   18 1    
    35   17   81 1    
    36   17   82 1    
    37   18   19 1    
    38   18   22 1    
    39   18   83 1    
    40   19   20 am   BACKBONE|DICT|INTERRES
    41   19   21 2    
    42   20   84 1    
    43   20   85 1    
    44   22   23 am   BACKBONE|DICT|INTERRES
    45   22   86 1    
    46   23   24 2    
    47   23   25 1    
    48   25   26 1    
    49   25   27 1    
    50   25   87 1    
    51   26   88 1    
    52   26   89 1    
    53   26   90 1    
    54   27   28 am   BACKBONE|DICT|INTERRES
    55   27   91 1    
    56   28   29 2    
    57   28   30 1    
    58   30   31 1    
    59   30   32 1    
    60   30   92 1    
    61   31   93 1    
    62   31   94 1    
    63   31   95 1    
    64   32   33 am   BACKBONE|DICT|INTERRES
    65   32   96 1    
    66   33   34 2    
    67   33   35 1    
    68   35   36 1    
    69   35   37 1    
    70   35   97 1    
    71   36   98 1    
    72   36   99 1    
    73   36  100 1    
    74   37   38 am   BACKBONE|DICT|INTERRES
    75   37  101 1    
    76   38   39 2    
    77   38   40 1    
    78   40   41 1    
    79   40   42 1    
    80   40  102 1    
    81   41  103 1    
    82   41  104 1    
    83   41  105 1    
    84   42   43 am   BACKBONE|DICT|INTERRES
    85   42  106 1    
    86   43   44 2    
    87   43   45 1    
    88   45   46 1    
    89   45   49 1    
    90   45  107 1    
    91   46   47 1    
    92   46  108 1    
    93   46  109 1    
    94   47   48 1    
    95   48  110 1    
    96   48  111 1    
    97   49   50 am   BACKBONE|DICT|INTERRES
    98   49  112 1    
    99   50   51 2    
   100   50   52 1    
   101   52   53 1    
   102   52   54 1    
   103   52  113 1    
   104   53  114 1    
   105   53  115 1    
   106   53  116 1    
   107   54   55 am   BACKBONE|DICT|INTERRES
   108   54  117 1    
   109   55   56 2    
   110   55   57 1    
   111   57   58 1    
   112   57   59 1    
   113   57  118 1    
   114   58  119 1    
   115   58  120 1    
   116   58  121 1    
   117   59   60 am   BACKBONE|DICT|INTERRES
   118   59  122 1    
   119   60   61 2    
   120   60   62 1    
   121   62   63 1    
   122   62   64 1    
   123   62  123 1    
   124   63  124 1    
   125   63  125 1    
   126   63  126 1    
   127   64   65 am   BACKBONE|DICT|INTERRES
   128   64  127 1    
   129   65   66 2    
@<TRIPOS>SUBSTRUCTURE
     1 UNK         1 GROUP             0       ****    0 ROOT    
