@<TRIPOS>MOLECULE
3R135
127   129    1
SMALL
USER_CHARGES


@<TRIPOS>ATOM
      1 CA        -83.7542   25.2416  -75.5756 C.3       0 UNK        -0.1998 
      2 C         -82.6083   26.0102  -74.9365 C.2       0 UNK         0.4909 
      3 O         -81.5528   25.4277  -74.6888 O.2       0 UNK        -0.5240 
      4 N         -82.8048   27.3118  -74.6793 N.am      1 UNK        -0.4739 
      5 CA        -81.8383   28.2367  -74.0708 C.3       1 UNK         0.0864 
      6 C6        -81.6667   27.9806  -72.5459 C.3       11 UNK        -0.0881 
      7 S7        -81.1821   29.5013  -71.6658 S.3       11 UNK        -0.2682 
      8 C8        -80.1740   28.8479  -70.2969 C.3       11 UNK         0.0289 
      9 C9        -78.7675   28.4444  -70.7240 C.ar      11 UNK        -0.0687 
     10 C10       -78.2736   27.1761  -70.4056 C.ar      11 UNK        -0.0823 
     11 C11       -76.9593   26.8226  -70.7273 C.ar      11 UNK        -0.0830 
     12 C12       -76.1419   27.7416  -71.3913 C.ar      11 UNK        -0.1021 
     13 C13       -76.6242   29.0121  -71.7223 C.ar      11 UNK        -0.0753 
     14 C14       -77.9348   29.3580  -71.3784 C.ar      11 UNK        -0.0933 
     15 C15       -75.7387   30.0167  -72.4472 C.3       11 UNK         0.0166 
     16 S16       -74.3462   30.5594  -71.4097 S.3       11 UNK        -0.2615 
     17 C17       -73.9383   32.1726  -72.1669 C.3       11 UNK        -0.0865 
     18 CA        -72.4944   32.2893  -72.7193 C.3       10 UNK         0.0862 
     19 C         -71.4119   32.2880  -71.5995 C.2       10 UNK         0.5551 
     20 N         -70.3964   31.4344  -71.6573 N.am      10 UNK        -0.7319 
     21 O         -71.4830   33.0924  -70.6733 O.2       10 UNK        -0.5018 
     22 N         -72.2397   31.3408  -73.8192 N.am      10 UNK        -0.4509 
     23 C         -71.5094   31.6292  -74.9050 C.2       10 UNK         0.4899 
     24 O         -71.0387   32.7464  -75.1244 O.2       10 UNK        -0.4839 
     25 CA        -71.2221   30.5049  -75.9197 C.3       9 UNK         0.0222 
     26 CB        -69.7077   30.3654  -76.1611 C.3       9 UNK        -0.1966 
     27 N         -71.7551   29.1881  -75.5572 N.am      9 UNK        -0.4218 
     28 C         -73.0086   28.7747  -75.7793 C.2       9 UNK         0.5020 
     29 O         -73.9190   29.5081  -76.1693 O.2       9 UNK        -0.5274 
     30 CA        -73.2800   27.2859  -75.4942 C.3       8 UNK         0.0270 
     31 CB        -73.8217   27.0868  -74.0731 C.3       8 UNK        -0.1976 
     32 N         -74.2068   26.6702  -76.4460 N.am      8 UNK        -0.4313 
     33 C         -74.0147   26.5713  -77.7676 C.2       8 UNK         0.5041 
     34 O         -73.0219   27.0008  -78.3604 O.2       8 UNK        -0.5577 
     35 CA        -75.1123   25.8108  -78.5332 C.3       7 UNK         0.0284 
     36 CB        -74.8986   25.7962  -80.0619 C.3       7 UNK        -0.1958 
     37 N         -75.2813   24.4493  -78.0076 N.am      7 UNK        -0.4454 
     38 C         -74.3634   23.4706  -77.9709 C.2       7 UNK         0.5089 
     39 O         -73.2313   23.5597  -78.4492 O.2       7 UNK        -0.5125 
     40 CA        -74.8038   22.1633  -77.2863 C.3       6 UNK         0.0408 
     41 CB        -73.6369   21.1843  -77.0341 C.3       6 UNK        -0.1791 
     42 N         -75.5761   22.3909  -76.0597 N.am      6 UNK        -0.4762 
     43 C         -75.1659   22.9597  -74.9127 C.2       6 UNK         0.5007 
     44 O         -74.0280   23.3969  -74.7395 O.2       6 UNK        -0.5032 
     45 CA        -76.2017   23.0371  -73.7662 C.3       5 UNK         0.0783 
     46 C46       -75.9400   24.2084  -72.7850 C.3       11 UNK        -0.0857 
     47 S47       -77.0530   24.1201  -71.3434 S.3       11 UNK        -0.2512 
     48 C48       -76.4132   25.4669  -70.3044 C.3       11 UNK         0.0225 
     49 N         -77.5599   23.0946  -74.3096 N.am      5 UNK        -0.4615 
     50 C         -78.3938   22.0591  -74.4577 C.2       4 UNK         0.5053 
     51 O         -78.1288   20.9113  -74.1014 O.2       4 UNK        -0.5105 
     52 CA        -79.7369   22.3408  -75.1559 C.3       4 UNK         0.0263 
     53 CB        -80.8801   22.3536  -74.1289 C.3       4 UNK        -0.1981 
     54 N         -79.7476   23.5966  -75.9175 N.am      4 UNK        -0.4224 
     55 C         -79.0361   23.8125  -77.0349 C.2       3 UNK         0.4895 
     56 O         -78.3048   22.9694  -77.5551 O.2       3 UNK        -0.5091 
     57 CA        -79.0969   25.2212  -77.6434 C.3       3 UNK         0.0250 
     58 CB        -80.3918   25.4103  -78.4484 C.3       3 UNK        -0.1996 
     59 N         -78.9792   26.2915  -76.6517 N.am      3 UNK        -0.4254 
     60 C         -77.9529   26.5034  -75.8181 C.2       2 UNK         0.5004 
     61 O         -76.9459   25.7948  -75.7840 O.2       2 UNK        -0.5226 
     62 CA        -78.0537   27.6974  -74.8505 C.3       2 UNK         0.0269 
     63 CB        -77.4992   28.9765  -75.5029 C.3       2 UNK        -0.1926 
     64 N         -79.3903   27.9169  -74.2758 N.am      2 UNK        -0.4687 
     65 C         -80.5273   28.2763  -74.8911 C.2       1 UNK         0.5165 
     66 O         -80.5907   28.5687  -76.0874 O.2       1 UNK        -0.5079 
     67 H67       -83.4344   24.8092  -76.5230 H         1 UNK         0.0900 
     68 H68       -84.0690   24.4297  -74.9207 H         1 UNK         0.0900 
     69 H69       -84.6174   25.8789  -75.7666 H         1 UNK         0.0900 
     70 H70       -83.6846   27.7320  -74.9457 H         1 UNK         0.2959 
     71 H71       -82.2841   29.2252  -74.1958 H         1 UNK         0.1079 
     72 H72       -80.9828   27.1567  -72.3344 H         1 UNK         0.0837 
     73 H73       -82.6218   27.6725  -72.1171 H         1 UNK         0.0837 
     74 H74       -80.7014   28.0130  -69.8327 H         1 UNK         0.0685 
     75 H75       -80.0906   29.6199  -69.5308 H         1 UNK         0.0685 
     76 H76       -78.9012   26.4678  -69.8816 H         1 UNK         0.1434 
     77 H77       -75.1206   27.4791  -71.6263 H         1 UNK         0.1329 
     78 H78       -78.3107   30.3441  -71.6147 H         1 UNK         0.1335 
     79 H79       -75.3543   29.5851  -73.3709 H         1 UNK         0.0680 
     80 H80       -76.3332   30.8831  -72.7405 H         1 UNK         0.0680 
     81 H81       -74.1195   32.9489  -71.4210 H         1 UNK         0.1032 
     82 H82       -74.6384   32.3906  -72.9743 H         1 UNK         0.1032 
     83 H83       -72.4365   33.2971  -73.1352 H         1 UNK         0.0461 
     84 H84       -69.6973   31.4477  -70.9315 H         1 UNK         0.3453 
     85 H85       -70.3247   30.7778  -72.4170 H         1 UNK         0.3453 
     86 H86       -72.5955   30.4049  -73.6963 H         1 UNK         0.2984 
     87 H87       -71.6806   30.8113  -76.8624 H         1 UNK         0.0554 
     88 H88       -69.4939   29.6170  -76.9245 H         1 UNK         0.0847 
     89 H89       -69.1771   30.0803  -75.2519 H         1 UNK         0.0847 
     90 H90       -69.2744   31.3045  -76.5085 H         1 UNK         0.0847 
     91 H91       -71.0850   28.5203  -75.2022 H         1 UNK         0.3141 
     92 H92       -72.3342   26.7463  -75.5771 H         1 UNK         0.0743 
     93 H93       -73.2408   27.6456  -73.3379 H         1 UNK         0.0784 
     94 H94       -73.7794   26.0368  -73.7852 H         1 UNK         0.0784 
     95 H95       -74.8585   27.4117  -73.9986 H         1 UNK         0.0784 
     96 H96       -75.0678   26.2861  -76.0671 H         1 UNK         0.3213 
     97 H97       -76.0446   26.3435  -78.3426 H         1 UNK         0.0855 
     98 H98       -73.9642   25.3080  -80.3402 H         1 UNK         0.0814 
     99 H99       -74.8617   26.8120  -80.4570 H         1 UNK         0.0814 
    100 H100      -75.7121   25.2792  -80.5707 H         1 UNK         0.0814 
    101 H101      -76.1575   24.2700  -77.5337 H         1 UNK         0.3105 
    102 H102      -75.4887   21.6784  -77.9835 H         1 UNK         0.0547 
    103 H103      -73.9843   20.2635  -76.5661 H         1 UNK         0.0837 
    104 H104      -72.8718   21.6207  -76.3913 H         1 UNK         0.0837 
    105 H105      -73.1516   20.9069  -77.9706 H         1 UNK         0.0837 
    106 H106      -76.5470   22.1105  -76.1114 H         1 UNK         0.3020 
    107 H107      -76.0768   22.1088  -73.2039 H         1 UNK         0.1245 
    108 H108      -76.0760   25.1707  -73.2803 H         1 UNK         0.0781 
    109 H109      -74.9126   24.1845  -72.4174 H         1 UNK         0.0781 
    110 H110      -75.3222   25.4606  -70.3179 H         1 UNK         0.0836 
    111 H111      -76.7012   25.2748  -69.2698 H         1 UNK         0.0836 
    112 H112      -77.8399   23.9955  -74.6727 H         1 UNK         0.3022 
    113 H113      -79.9171   21.5229  -75.8566 H         1 UNK         0.0747 
    114 H114      -81.8458   22.5060  -74.6111 H         1 UNK         0.0793 
    115 H115      -80.9324   21.4072  -73.5890 H         1 UNK         0.0793 
    116 H116      -80.7462   23.1442  -73.3892 H         1 UNK         0.0793 
    117 H117      -80.3224   24.3486  -75.5377 H         1 UNK         0.3047 
    118 H118      -78.2561   25.3183  -78.3321 H         1 UNK         0.0822 
    119 H119      -80.3989   26.3692  -78.9670 H         1 UNK         0.0807 
    120 H120      -81.2745   25.3699  -77.8096 H         1 UNK         0.0807 
    121 H121      -80.4994   24.6323  -79.2056 H         1 UNK         0.0807 
    122 H122      -79.7430   26.9601  -76.6054 H         1 UNK         0.2946 
    123 H123      -77.4108   27.4524  -74.0045 H         1 UNK         0.1144 
    124 H124      -77.5365   29.8215  -74.8162 H         1 UNK         0.0793 
    125 H125      -78.0511   29.2523  -76.4016 H         1 UNK         0.0793 
    126 H126      -76.4582   28.8395  -75.7956 H         1 UNK         0.0793 
    127 H127      -79.4600   27.6979  -73.2913 H         1 UNK         0.2896 
@<TRIPOS>BOND
     1    1    2 1    
     2    1   67 1    
     3    1   68 1    
     4    1   69 1    
     5    2    3 2    
     6    2    4 am   BACKBONE|DICT|INTERRES
     7    4    5 1    
     8    4   70 1    
     9    5    6 1    
    10    5   65 1    
    11    5   71 1    
    12    6    7 1    
    13    6   72 1    
    14    6   73 1    
    15    7    8 1    
    16    8    9 1    
    17    8   74 1    
    18    8   75 1    
    19    9   10 ar   
    20    9   14 ar   
    21   10   11 ar   
    22   10   76 1    
    23   11   12 ar   
    24   11   48 1    
    25   12   13 ar   
    26   12   77 1    
    27   13   14 ar   
    28   13   15 1    
    29   14   78 1    
    30   15   16 1    
    31   15   79 1    
    32   15   80 1    
    33   16   17 1    
    34   17   18 1    
    35   17   81 1    
    36   17   82 1    
    37   18   19 1    
    38   18   22 1    
    39   18   83 1    
    40   19   20 am   BACKBONE|DICT|INTERRES
    41   19   21 2    
    42   20   84 1    
    43   20   85 1    
    44   22   23 am   BACKBONE|DICT|INTERRES
    45   22   86 1    
    46   23   24 2    
    47   23   25 1    
    48   25   26 1    
    49   25   27 1    
    50   25   87 1    
    51   26   88 1    
    52   26   89 1    
    53   26   90 1    
    54   27   28 am   BACKBONE|DICT|INTERRES
    55   27   91 1    
    56   28   29 2    
    57   28   30 1    
    58   30   31 1    
    59   30   32 1    
    60   30   92 1    
    61   31   93 1    
    62   31   94 1    
    63   31   95 1    
    64   32   33 am   BACKBONE|DICT|INTERRES
    65   32   96 1    
    66   33   34 2    
    67   33   35 1    
    68   35   36 1    
    69   35   37 1    
    70   35   97 1    
    71   36   98 1    
    72   36   99 1    
    73   36  100 1    
    74   37   38 am   BACKBONE|DICT|INTERRES
    75   37  101 1    
    76   38   39 2    
    77   38   40 1    
    78   40   41 1    
    79   40   42 1    
    80   40  102 1    
    81   41  103 1    
    82   41  104 1    
    83   41  105 1    
    84   42   43 am   BACKBONE|DICT|INTERRES
    85   42  106 1    
    86   43   44 2    
    87   43   45 1    
    88   45   46 1    
    89   45   49 1    
    90   45  107 1    
    91   46   47 1    
    92   46  108 1    
    93   46  109 1    
    94   47   48 1    
    95   48  110 1    
    96   48  111 1    
    97   49   50 am   BACKBONE|DICT|INTERRES
    98   49  112 1    
    99   50   51 2    
   100   50   52 1    
   101   52   53 1    
   102   52   54 1    
   103   52  113 1    
   104   53  114 1    
   105   53  115 1    
   106   53  116 1    
   107   54   55 am   BACKBONE|DICT|INTERRES
   108   54  117 1    
   109   55   56 2    
   110   55   57 1    
   111   57   58 1    
   112   57   59 1    
   113   57  118 1    
   114   58  119 1    
   115   58  120 1    
   116   58  121 1    
   117   59   60 am   BACKBONE|DICT|INTERRES
   118   59  122 1    
   119   60   61 2    
   120   60   62 1    
   121   62   63 1    
   122   62   64 1    
   123   62  123 1    
   124   63  124 1    
   125   63  125 1    
   126   63  126 1    
   127   64   65 am   BACKBONE|DICT|INTERRES
   128   64  127 1    
   129   65   66 2    
@<TRIPOS>SUBSTRUCTURE
     1 UNK         1 GROUP             0       ****    0 ROOT    
