@<TRIPOS>MOLECULE
3R135
127   129    1
SMALL
USER_CHARGES


@<TRIPOS>ATOM
      1 CA        -80.2252   29.0952  -70.3904 C.3       0 UNK        -0.1998 
      2 C         -80.9595   28.5147  -71.5897 C.2       0 UNK         0.4909 
      3 O         -82.1196   28.1186  -71.4681 O.2       0 UNK        -0.5240 
      4 N         -80.2946   28.4806  -72.7498 N.am      1 UNK        -0.4739 
      5 CA        -80.8127   27.9387  -74.0108 C.3       1 UNK         0.0864 
      6 C6        -79.9348   28.3376  -75.2286 C.3       11 UNK        -0.0881 
      7 S7        -79.5302   30.1166  -75.3191 S.3       11 UNK        -0.2682 
      8 C8        -77.7148   30.0975  -75.1569 C.3       11 UNK         0.0289 
      9 C9        -77.2684   29.9459  -73.7093 C.ar      11 UNK        -0.0687 
     10 C10       -77.1536   28.6784  -73.1312 C.ar      11 UNK        -0.0823 
     11 C11       -76.7502   28.5326  -71.8002 C.ar      11 UNK        -0.0830 
     12 C12       -76.4208   29.6708  -71.0603 C.ar      11 UNK        -0.1021 
     13 C13       -76.4956   30.9418  -71.6361 C.ar      11 UNK        -0.0753 
     14 C14       -76.9351   31.0750  -72.9560 C.ar      11 UNK        -0.0933 
     15 C15       -76.1111   32.1720  -70.8284 C.3       11 UNK         0.0166 
     16 S16       -74.4432   32.7739  -71.2486 S.3       11 UNK        -0.2615 
     17 C17       -73.3684   31.4386  -70.6131 C.3       11 UNK        -0.0865 
     18 CA        -72.4053   30.8590  -71.6848 C.3       10 UNK         0.0862 
     19 C         -71.4221   29.8452  -71.0460 C.2       10 UNK         0.5551 
     20 N         -70.3330   30.3245  -70.4614 N.am      10 UNK        -0.7319 
     21 O         -71.6503   28.6363  -71.0448 O.2       10 UNK        -0.5018 
     22 N         -73.1128   30.2201  -72.8022 N.am      10 UNK        -0.4509 
     23 C         -73.2091   30.7119  -74.0414 C.2       10 UNK         0.4899 
     24 O         -72.8163   31.8325  -74.3732 O.2       10 UNK        -0.4839 
     25 CA        -73.8208   29.7664  -75.0950 C.3       9 UNK         0.0222 
     26 CB        -73.8455   30.3743  -76.5122 C.3       9 UNK        -0.1966 
     27 N         -73.2012   28.4365  -75.1328 N.am      9 UNK        -0.4218 
     28 C         -71.8952   28.1396  -75.2491 C.2       9 UNK         0.5020 
     29 O         -70.9834   28.9672  -75.2652 O.2       9 UNK        -0.5274 
     30 CA        -71.5583   26.6496  -75.4245 C.3       8 UNK         0.0270 
     31 CB        -71.7538   25.8827  -74.1049 C.3       8 UNK        -0.1976 
     32 N         -72.3778   26.0436  -76.4759 N.am      8 UNK        -0.4313 
     33 C         -72.2530   26.2982  -77.7890 C.2       8 UNK         0.5041 
     34 O         -71.3306   26.9480  -78.2811 O.2       8 UNK        -0.5577 
     35 CA        -73.3804   25.7863  -78.6946 C.3       7 UNK         0.0284 
     36 CB        -73.2316   24.2794  -78.9782 C.3       7 UNK        -0.1958 
     37 N         -74.6578   26.0803  -78.0535 N.am      7 UNK        -0.4454 
     38 C         -75.8796   26.0591  -78.5842 C.2       7 UNK         0.5089 
     39 O         -76.1147   25.7658  -79.7575 O.2       7 UNK        -0.5125 
     40 CA        -77.0244   26.4297  -77.6127 C.3       6 UNK         0.0408 
     41 CB        -78.4037   26.3711  -78.2933 C.3       6 UNK        -0.1791 
     42 N         -77.0521   25.5878  -76.4071 N.am      6 UNK        -0.4762 
     43 C         -76.1548   25.5827  -75.4077 C.2       6 UNK         0.5007 
     44 O         -75.2031   26.3671  -75.3601 O.2       6 UNK        -0.5032 
     45 CA        -76.2839   24.5042  -74.3141 C.3       5 UNK         0.0783 
     46 C46       -76.8641   25.0669  -72.9973 C.3       11 UNK        -0.0857 
     47 S47       -75.6322   25.9808  -72.0089 S.3       11 UNK        -0.2512 
     48 C48       -76.7055   27.1623  -71.1343 C.3       11 UNK         0.0225 
     49 N         -77.0592   23.3460  -74.7734 N.am      5 UNK        -0.4615 
     50 C         -76.5761   22.0981  -74.8579 C.2       4 UNK         0.5053 
     51 O         -75.4052   21.8014  -74.6185 O.2       4 UNK        -0.5105 
     52 CA        -77.5521   20.9718  -75.2481 C.3       4 UNK         0.0263 
     53 CB        -78.0475   20.2390  -73.9905 C.3       4 UNK        -0.1981 
     54 N         -78.7092   21.4313  -76.0161 N.am      4 UNK        -0.4224 
     55 C         -78.6643   21.8489  -77.2879 C.2       3 UNK         0.4895 
     56 O         -77.6442   21.8370  -77.9771 O.2       3 UNK        -0.5091 
     57 CA        -79.9747   22.3858  -77.8945 C.3       3 UNK         0.0250 
     58 CB        -80.6635   21.2910  -78.7257 C.3       3 UNK        -0.1996 
     59 N         -80.9402   22.9374  -76.9312 N.am      3 UNK        -0.4254 
     60 C         -80.7002   23.9378  -76.0716 C.2       2 UNK         0.5004 
     61 O         -79.5814   24.4281  -75.9029 O.2       2 UNK        -0.5226 
     62 CA        -81.9133   24.4525  -75.2736 C.3       2 UNK         0.0269 
     63 CB        -82.2196   23.5413  -74.0670 C.3       2 UNK        -0.1926 
     64 N         -81.7693   25.8658  -74.8869 N.am      2 UNK        -0.4687 
     65 C         -80.9532   26.4003  -73.9644 C.2       1 UNK         0.5165 
     66 O         -80.2910   25.7457  -73.1555 O.2       1 UNK        -0.5079 
     67 H67       -80.8816   29.7611  -69.8309 H         1 UNK         0.0900 
     68 H68       -79.9009   28.2954  -69.7253 H         1 UNK         0.0900 
     69 H69       -79.3484   29.6672  -70.6928 H         1 UNK         0.0900 
     70 H70       -79.3492   28.8355  -72.7902 H         1 UNK         0.2959 
     71 H71       -81.8101   28.3606  -74.1538 H         1 UNK         0.1079 
     72 H72       -80.4596   28.0903  -76.1527 H         1 UNK         0.0837 
     73 H73       -79.0156   27.7510  -75.2569 H         1 UNK         0.0837 
     74 H74       -77.2910   29.3012  -75.7698 H         1 UNK         0.0685 
     75 H75       -77.3219   31.0287  -75.5680 H         1 UNK         0.0685 
     76 H76       -77.3875   27.8044  -73.7174 H         1 UNK         0.1434 
     77 H77       -76.1073   29.5691  -70.0304 H         1 UNK         0.1329 
     78 H78       -77.0021   32.0589  -73.3998 H         1 UNK         0.1335 
     79 H79       -76.8305   32.9695  -71.0199 H         1 UNK         0.0680 
     80 H80       -76.1635   31.9665  -69.7581 H         1 UNK         0.0680 
     81 H81       -72.7966   31.8593  -69.7839 H         1 UNK         0.1032 
     82 H82       -73.9714   30.6427  -70.1766 H         1 UNK         0.1032 
     83 H83       -71.7977   31.6803  -72.0704 H         1 UNK         0.0461 
     84 H84       -69.6873   29.6822  -70.0289 H         1 UNK         0.3453 
     85 H85       -70.1374   31.3136  -70.4502 H         1 UNK         0.3453 
     86 H86       -73.4134   29.2712  -72.6268 H         1 UNK         0.2984 
     87 H87       -74.8519   29.6007  -74.7935 H         1 UNK         0.0554 
     88 H88       -74.3462   29.7122  -77.2188 H         1 UNK         0.0847 
     89 H89       -72.8384   30.5634  -76.8857 H         1 UNK         0.0847 
     90 H90       -74.3826   31.3235  -76.5219 H         1 UNK         0.0847 
     91 H91       -73.8593   27.6609  -75.1028 H         1 UNK         0.3141 
     92 H92       -70.5085   26.5700  -75.7154 H         1 UNK         0.0743 
     93 H93       -72.7937   25.8916  -73.7748 H         1 UNK         0.0784 
     94 H94       -71.4422   24.8426  -74.2014 H         1 UNK         0.0784 
     95 H95       -71.1575   26.3264  -73.3060 H         1 UNK         0.0784 
     96 H96       -73.1505   25.4740  -76.1633 H         1 UNK         0.3213 
     97 H97       -73.3335   26.3339  -79.6384 H         1 UNK         0.0855 
     98 H98       -73.3285   23.6835  -78.0701 H         1 UNK         0.0814 
     99 H99       -72.2553   24.0599  -79.4124 H         1 UNK         0.0814 
    100 H100      -73.9837   23.9313  -79.6863 H         1 UNK         0.0814 
    101 H101      -74.6143   26.3638  -77.0779 H         1 UNK         0.3105 
    102 H102      -76.8542   27.4608  -77.2984 H         1 UNK         0.0547 
    103 H103      -78.4485   27.0471  -79.1480 H         1 UNK         0.0837 
    104 H104      -78.6271   25.3683  -78.6575 H         1 UNK         0.0837 
    105 H105      -79.2008   26.6607  -77.6107 H         1 UNK         0.0837 
    106 H106      -77.8477   24.9587  -76.3369 H         1 UNK         0.3020 
    107 H107      -75.2593   24.1858  -74.1087 H         1 UNK         0.1245 
    108 H108      -77.2165   24.2490  -72.3665 H         1 UNK         0.0781 
    109 H109      -77.7424   25.6805  -73.1916 H         1 UNK         0.0781 
    110 H110      -76.3354   27.2500  -70.1117 H         1 UNK         0.0836 
    111 H111      -77.7188   26.7664  -71.0510 H         1 UNK         0.0836 
    112 H112      -78.0296   23.5215  -75.0142 H         1 UNK         0.3022 
    113 H113      -76.9984   20.2585  -75.8625 H         1 UNK         0.0747 
    114 H114      -78.6775   19.3876  -74.2486 H         1 UNK         0.0793 
    115 H115      -77.2095   19.8538  -73.4076 H         1 UNK         0.0793 
    116 H116      -78.6218   20.8983  -73.3382 H         1 UNK         0.0793 
    117 H117      -79.5937   21.4741  -75.5315 H         1 UNK         0.3047 
    118 H118      -79.6983   23.1973  -78.5702 H         1 UNK         0.0822 
    119 H119      -81.5264   21.6833  -79.2644 H         1 UNK         0.0807 
    120 H120      -81.0032   20.4638  -78.1011 H         1 UNK         0.0807 
    121 H121      -79.9818   20.8778  -79.4707 H         1 UNK         0.0807 
    122 H122      -81.8801   22.5721  -76.9920 H         1 UNK         0.2946 
    123 H123      -82.7762   24.4215  -75.9414 H         1 UNK         0.1144 
    124 H124      -83.0364   23.9398  -73.4652 H         1 UNK         0.0793 
    125 H125      -81.3539   23.4147  -73.4162 H         1 UNK         0.0793 
    126 H126      -82.5179   22.5454  -74.3965 H         1 UNK         0.0793 
    127 H127      -82.2543   26.5094  -75.4969 H         1 UNK         0.2896 
@<TRIPOS>BOND
     1    1    2 1    
     2    1   67 1    
     3    1   68 1    
     4    1   69 1    
     5    2    3 2    
     6    2    4 am   BACKBONE|DICT|INTERRES
     7    4    5 1    
     8    4   70 1    
     9    5    6 1    
    10    5   65 1    
    11    5   71 1    
    12    6    7 1    
    13    6   72 1    
    14    6   73 1    
    15    7    8 1    
    16    8    9 1    
    17    8   74 1    
    18    8   75 1    
    19    9   10 ar   
    20    9   14 ar   
    21   10   11 ar   
    22   10   76 1    
    23   11   12 ar   
    24   11   48 1    
    25   12   13 ar   
    26   12   77 1    
    27   13   14 ar   
    28   13   15 1    
    29   14   78 1    
    30   15   16 1    
    31   15   79 1    
    32   15   80 1    
    33   16   17 1    
    34   17   18 1    
    35   17   81 1    
    36   17   82 1    
    37   18   19 1    
    38   18   22 1    
    39   18   83 1    
    40   19   20 am   BACKBONE|DICT|INTERRES
    41   19   21 2    
    42   20   84 1    
    43   20   85 1    
    44   22   23 am   BACKBONE|DICT|INTERRES
    45   22   86 1    
    46   23   24 2    
    47   23   25 1    
    48   25   26 1    
    49   25   27 1    
    50   25   87 1    
    51   26   88 1    
    52   26   89 1    
    53   26   90 1    
    54   27   28 am   BACKBONE|DICT|INTERRES
    55   27   91 1    
    56   28   29 2    
    57   28   30 1    
    58   30   31 1    
    59   30   32 1    
    60   30   92 1    
    61   31   93 1    
    62   31   94 1    
    63   31   95 1    
    64   32   33 am   BACKBONE|DICT|INTERRES
    65   32   96 1    
    66   33   34 2    
    67   33   35 1    
    68   35   36 1    
    69   35   37 1    
    70   35   97 1    
    71   36   98 1    
    72   36   99 1    
    73   36  100 1    
    74   37   38 am   BACKBONE|DICT|INTERRES
    75   37  101 1    
    76   38   39 2    
    77   38   40 1    
    78   40   41 1    
    79   40   42 1    
    80   40  102 1    
    81   41  103 1    
    82   41  104 1    
    83   41  105 1    
    84   42   43 am   BACKBONE|DICT|INTERRES
    85   42  106 1    
    86   43   44 2    
    87   43   45 1    
    88   45   46 1    
    89   45   49 1    
    90   45  107 1    
    91   46   47 1    
    92   46  108 1    
    93   46  109 1    
    94   47   48 1    
    95   48  110 1    
    96   48  111 1    
    97   49   50 am   BACKBONE|DICT|INTERRES
    98   49  112 1    
    99   50   51 2    
   100   50   52 1    
   101   52   53 1    
   102   52   54 1    
   103   52  113 1    
   104   53  114 1    
   105   53  115 1    
   106   53  116 1    
   107   54   55 am   BACKBONE|DICT|INTERRES
   108   54  117 1    
   109   55   56 2    
   110   55   57 1    
   111   57   58 1    
   112   57   59 1    
   113   57  118 1    
   114   58  119 1    
   115   58  120 1    
   116   58  121 1    
   117   59   60 am   BACKBONE|DICT|INTERRES
   118   59  122 1    
   119   60   61 2    
   120   60   62 1    
   121   62   63 1    
   122   62   64 1    
   123   62  123 1    
   124   63  124 1    
   125   63  125 1    
   126   63  126 1    
   127   64   65 am   BACKBONE|DICT|INTERRES
   128   64  127 1    
   129   65   66 2    
@<TRIPOS>SUBSTRUCTURE
     1 UNK         1 GROUP             0       ****    0 ROOT    
