@<TRIPOS>MOLECULE
3R135
127   129    1
SMALL
USER_CHARGES


@<TRIPOS>ATOM
      1 CA        -83.3787   23.4944  -73.1944 C.3       0 UNK        -0.1998 
      2 C         -83.2247   24.9283  -73.6781 C.2       0 UNK         0.4909 
      3 O         -84.0260   25.3915  -74.4909 O.2       0 UNK        -0.5240 
      4 N         -82.1985   25.6367  -73.1887 N.am      1 UNK        -0.4739 
      5 CA        -81.8478   27.0019  -73.5925 C.3       1 UNK         0.0864 
      6 C6        -81.0455   27.7181  -72.4779 C.3       11 UNK        -0.0881 
      7 S7        -81.1383   29.5361  -72.5999 S.3       11 UNK        -0.2682 
      8 C8        -80.6836   30.0311  -70.9049 C.3       11 UNK         0.0289 
      9 C9        -79.2085   29.7808  -70.6271 C.ar      11 UNK        -0.0687 
     10 C10       -78.7844   28.5364  -70.1512 C.ar      11 UNK        -0.0823 
     11 C11       -77.4245   28.2763  -69.9679 C.ar      11 UNK        -0.0830 
     12 C12       -76.4942   29.2963  -70.1785 C.ar      11 UNK        -0.1021 
     13 C13       -76.9012   30.5400  -70.6675 C.ar      11 UNK        -0.0753 
     14 C14       -78.2622   30.7782  -70.8866 C.ar      11 UNK        -0.0933 
     15 C15       -75.8663   31.6057  -71.0019 C.3       11 UNK         0.0166 
     16 S16       -75.0163   31.2429  -72.5768 S.3       11 UNK        -0.2615 
     17 C17       -73.7858   29.9941  -72.0612 C.3       11 UNK        -0.0865 
     18 CA        -72.4476   30.1259  -72.8286 C.3       10 UNK         0.0862 
     19 C         -71.3399   29.2750  -72.1539 C.2       10 UNK         0.5551 
     20 N         -70.3847   29.9088  -71.4880 N.am      10 UNK        -0.7319 
     21 O         -71.3702   28.0469  -72.1895 O.2       10 UNK        -0.5018 
     22 N         -72.5960   29.7421  -74.2365 N.am      10 UNK        -0.4509 
     23 C         -71.7707   30.1321  -75.2144 C.2       10 UNK         0.4899 
     24 O         -70.8738   30.9647  -75.0667 O.2       10 UNK        -0.4839 
     25 CA        -71.9860   29.4560  -76.5801 C.3       9 UNK         0.0222 
     26 CB        -70.9998   29.9368  -77.6656 C.3       9 UNK        -0.1966 
     27 N         -71.9755   27.9939  -76.4686 N.am      9 UNK        -0.4218 
     28 C         -70.9781   27.2032  -76.0410 C.2       9 UNK         0.5020 
     29 O         -69.8566   27.6102  -75.7344 O.2       9 UNK        -0.5274 
     30 CA        -71.2737   25.6945  -75.9234 C.3       8 UNK         0.0270 
     31 CB        -71.4200   25.2979  -74.4451 C.3       8 UNK        -0.1976 
     32 N         -72.4742   25.2705  -76.6501 N.am      8 UNK        -0.4313 
     33 C         -72.5707   25.1750  -77.9836 C.2       8 UNK         0.5041 
     34 O         -71.6241   25.3437  -78.7531 O.2       8 UNK        -0.5577 
     35 CA        -73.9702   24.8883  -78.5574 C.3       7 UNK         0.0284 
     36 CB        -74.2757   23.3827  -78.5302 C.3       7 UNK        -0.1958 
     37 N         -75.0302   25.6239  -77.8593 N.am      7 UNK        -0.4454 
     38 C         -75.1403   26.9605  -77.8338 C.2       7 UNK         0.5089 
     39 O         -74.3878   27.7220  -78.4393 O.2       7 UNK        -0.5125 
     40 CA        -76.2404   27.5553  -76.9432 C.3       6 UNK         0.0408 
     41 CB        -77.5856   27.5959  -77.6822 C.3       6 UNK        -0.1791 
     42 N         -76.3859   26.8224  -75.6861 N.am      6 UNK        -0.4762 
     43 C         -75.5096   26.8687  -74.6723 C.2       6 UNK         0.5007 
     44 O         -74.4966   27.5699  -74.6728 O.2       6 UNK        -0.5032 
     45 CA        -75.8138   25.9599  -73.4629 C.3       5 UNK         0.0783 
     46 C46       -76.8347   26.6582  -72.5378 C.3       11 UNK        -0.0857 
     47 S47       -77.2629   25.7031  -71.0335 S.3       11 UNK        -0.2512 
     48 C48       -76.9420   26.8666  -69.6552 C.3       11 UNK         0.0225 
     49 N         -76.2609   24.6254  -73.8773 N.am      5 UNK        -0.4615 
     50 C         -75.5147   23.7531  -74.5673 C.2       4 UNK         0.5053 
     51 O         -74.3596   23.9756  -74.9261 O.2       4 UNK        -0.5105 
     52 CA        -76.1799   22.4239  -74.9629 C.3       4 UNK         0.0263 
     53 CB        -76.0662   21.4070  -73.8163 C.3       4 UNK        -0.1981 
     54 N         -77.5840   22.5459  -75.3731 N.am      4 UNK        -0.4224 
     55 C         -78.0468   23.3395  -76.3502 C.2       3 UNK         0.4895 
     56 O         -77.3354   24.1169  -76.9896 O.2       3 UNK        -0.5091 
     57 CA        -79.5482   23.2737  -76.6685 C.3       3 UNK         0.0250 
     58 CB        -80.3896   22.4679  -75.6544 C.3       3 UNK        -0.1996 
     59 N         -80.0585   24.6370  -76.7471 N.am      3 UNK        -0.4254 
     60 C         -80.9998   25.0879  -77.5802 C.2       2 UNK         0.5004 
     61 O         -81.5595   24.3879  -78.4263 O.2       2 UNK        -0.5226 
     62 CA        -81.4035   26.5664  -77.3972 C.3       2 UNK         0.0269 
     63 CB        -82.4891   27.0150  -78.3931 C.3       2 UNK        -0.1926 
     64 N         -81.8781   26.8214  -76.0336 N.am      2 UNK        -0.4687 
     65 C         -81.1069   26.9467  -74.9449 C.2       1 UNK         0.5165 
     66 O         -79.8737   26.9125  -74.9840 O.2       1 UNK        -0.5079 
     67 H67       -83.3496   22.8087  -74.0407 H         1 UNK         0.0900 
     68 H68       -82.5877   23.2102  -72.5007 H         1 UNK         0.0900 
     69 H69       -84.3356   23.3705  -72.6881 H         1 UNK         0.0900 
     70 H70       -81.5613   25.1975  -72.5395 H         1 UNK         0.2959 
     71 H71       -82.7766   27.5584  -73.7417 H         1 UNK         0.1079 
     72 H72       -80.0019   27.4015  -72.4601 H         1 UNK         0.0837 
     73 H73       -81.4571   27.4414  -71.5059 H         1 UNK         0.0837 
     74 H74       -80.9101   31.0905  -70.7760 H         1 UNK         0.0685 
     75 H75       -81.3043   29.4985  -70.1827 H         1 UNK         0.0685 
     76 H76       -79.5042   27.7470  -69.9848 H         1 UNK         0.1434 
     77 H77       -75.4440   29.0965  -70.0259 H         1 UNK         0.1329 
     78 H78       -78.5849   31.7326  -71.2800 H         1 UNK         0.1335 
     79 H79       -75.1425   31.6984  -70.1910 H         1 UNK         0.0680 
     80 H80       -76.3482   32.5809  -71.0875 H         1 UNK         0.0680 
     81 H81       -74.2105   28.9972  -72.1933 H         1 UNK         0.1032 
     82 H82       -73.6035   30.1121  -70.9917 H         1 UNK         0.1032 
     83 H83       -72.1459   31.1750  -72.7883 H         1 UNK         0.0461 
     84 H84       -69.6670   29.3695  -71.0296 H         1 UNK         0.3453 
     85 H85       -70.3557   30.9159  -71.4505 H         1 UNK         0.3453 
     86 H86       -73.2771   29.0116  -74.4289 H         1 UNK         0.2984 
     87 H87       -72.9910   29.7298  -76.9048 H         1 UNK         0.0554 
     88 H88       -71.0836   31.0134  -77.8177 H         1 UNK         0.0847 
     89 H89       -71.2026   29.4572  -78.6232 H         1 UNK         0.0847 
     90 H90       -69.9638   29.7272  -77.3979 H         1 UNK         0.0847 
     91 H91       -72.8545   27.5450  -76.6895 H         1 UNK         0.3141 
     92 H92       -70.4166   25.1599  -76.3382 H         1 UNK         0.0743 
     93 H93       -70.5304   25.5705  -73.8754 H         1 UNK         0.0784 
     94 H94       -72.2689   25.7995  -73.9779 H         1 UNK         0.0784 
     95 H95       -71.5615   24.2229  -74.3327 H         1 UNK         0.0784 
     96 H96       -73.2812   25.0180  -76.0827 H         1 UNK         0.3213 
     97 H97       -73.9746   25.2171  -79.5988 H         1 UNK         0.0855 
     98 H98       -74.2538   22.9849  -77.5162 H         1 UNK         0.0814 
     99 H99       -73.5401   22.8269  -79.1130 H         1 UNK         0.0814 
    100 H100      -75.2569   23.1676  -78.9541 H         1 UNK         0.0814 
    101 H101      -75.7386   25.0730  -77.3791 H         1 UNK         0.3105 
    102 H102      -75.9574   28.5833  -76.7058 H         1 UNK         0.0547 
    103 H103      -77.5005   28.1535  -78.6158 H         1 UNK         0.0837 
    104 H104      -78.3464   28.0905  -77.0785 H         1 UNK         0.0837 
    105 H105      -77.9443   26.5967  -77.9307 H         1 UNK         0.0837 
    106 H106      -77.1753   26.1963  -75.6139 H         1 UNK         0.3020 
    107 H107      -74.8786   25.8367  -72.9115 H         1 UNK         0.1245 
    108 H108      -77.7638   26.8570  -73.0748 H         1 UNK         0.0781 
    109 H109      -76.4395   27.6347  -72.2637 H         1 UNK         0.0781 
    110 H110      -75.8730   26.8626  -69.4370 H         1 UNK         0.0836 
    111 H111      -77.4394   26.5020  -68.7554 H         1 UNK         0.0836 
    112 H112      -77.1949   24.3594  -73.6033 H         1 UNK         0.3022 
    113 H113      -75.6303   22.0281  -75.8186 H         1 UNK         0.0747 
    114 H114      -75.0273   21.2833  -73.5065 H         1 UNK         0.0793 
    115 H115      -76.6325   21.7210  -72.9384 H         1 UNK         0.0793 
    116 H116      -76.4299   20.4246  -74.1181 H         1 UNK         0.0793 
    117 H117      -78.2432   21.9460  -74.8988 H         1 UNK         0.3047 
    118 H118      -79.6324   22.7987  -77.6482 H         1 UNK         0.0822 
    119 H119      -81.4426   22.4684  -75.9372 H         1 UNK         0.0807 
    120 H120      -80.3227   22.8823  -74.6475 H         1 UNK         0.0807 
    121 H121      -80.0784   21.4233  -75.6146 H         1 UNK         0.0807 
    122 H122      -79.6594   25.3033  -76.0928 H         1 UNK         0.2946 
    123 H123      -80.5144   27.1714  -77.5818 H         1 UNK         0.1144 
    124 H124      -83.4141   26.4517  -78.2632 H         1 UNK         0.0793 
    125 H125      -82.1592   26.8699  -79.4228 H         1 UNK         0.0793 
    126 H126      -82.7217   28.0735  -78.2757 H         1 UNK         0.0793 
    127 H127      -82.8757   26.7275  -75.8844 H         1 UNK         0.2896 
@<TRIPOS>BOND
     1    1    2 1    
     2    1   67 1    
     3    1   68 1    
     4    1   69 1    
     5    2    3 2    
     6    2    4 am   BACKBONE|DICT|INTERRES
     7    4    5 1    
     8    4   70 1    
     9    5    6 1    
    10    5   65 1    
    11    5   71 1    
    12    6    7 1    
    13    6   72 1    
    14    6   73 1    
    15    7    8 1    
    16    8    9 1    
    17    8   74 1    
    18    8   75 1    
    19    9   10 ar   
    20    9   14 ar   
    21   10   11 ar   
    22   10   76 1    
    23   11   12 ar   
    24   11   48 1    
    25   12   13 ar   
    26   12   77 1    
    27   13   14 ar   
    28   13   15 1    
    29   14   78 1    
    30   15   16 1    
    31   15   79 1    
    32   15   80 1    
    33   16   17 1    
    34   17   18 1    
    35   17   81 1    
    36   17   82 1    
    37   18   19 1    
    38   18   22 1    
    39   18   83 1    
    40   19   20 am   BACKBONE|DICT|INTERRES
    41   19   21 2    
    42   20   84 1    
    43   20   85 1    
    44   22   23 am   BACKBONE|DICT|INTERRES
    45   22   86 1    
    46   23   24 2    
    47   23   25 1    
    48   25   26 1    
    49   25   27 1    
    50   25   87 1    
    51   26   88 1    
    52   26   89 1    
    53   26   90 1    
    54   27   28 am   BACKBONE|DICT|INTERRES
    55   27   91 1    
    56   28   29 2    
    57   28   30 1    
    58   30   31 1    
    59   30   32 1    
    60   30   92 1    
    61   31   93 1    
    62   31   94 1    
    63   31   95 1    
    64   32   33 am   BACKBONE|DICT|INTERRES
    65   32   96 1    
    66   33   34 2    
    67   33   35 1    
    68   35   36 1    
    69   35   37 1    
    70   35   97 1    
    71   36   98 1    
    72   36   99 1    
    73   36  100 1    
    74   37   38 am   BACKBONE|DICT|INTERRES
    75   37  101 1    
    76   38   39 2    
    77   38   40 1    
    78   40   41 1    
    79   40   42 1    
    80   40  102 1    
    81   41  103 1    
    82   41  104 1    
    83   41  105 1    
    84   42   43 am   BACKBONE|DICT|INTERRES
    85   42  106 1    
    86   43   44 2    
    87   43   45 1    
    88   45   46 1    
    89   45   49 1    
    90   45  107 1    
    91   46   47 1    
    92   46  108 1    
    93   46  109 1    
    94   47   48 1    
    95   48  110 1    
    96   48  111 1    
    97   49   50 am   BACKBONE|DICT|INTERRES
    98   49  112 1    
    99   50   51 2    
   100   50   52 1    
   101   52   53 1    
   102   52   54 1    
   103   52  113 1    
   104   53  114 1    
   105   53  115 1    
   106   53  116 1    
   107   54   55 am   BACKBONE|DICT|INTERRES
   108   54  117 1    
   109   55   56 2    
   110   55   57 1    
   111   57   58 1    
   112   57   59 1    
   113   57  118 1    
   114   58  119 1    
   115   58  120 1    
   116   58  121 1    
   117   59   60 am   BACKBONE|DICT|INTERRES
   118   59  122 1    
   119   60   61 2    
   120   60   62 1    
   121   62   63 1    
   122   62   64 1    
   123   62  123 1    
   124   63  124 1    
   125   63  125 1    
   126   63  126 1    
   127   64   65 am   BACKBONE|DICT|INTERRES
   128   64  127 1    
   129   65   66 2    
@<TRIPOS>SUBSTRUCTURE
     1 UNK         1 GROUP             0       ****    0 ROOT    
