@<TRIPOS>MOLECULE
3R135
127   129    1
SMALL
USER_CHARGES


@<TRIPOS>ATOM
      1 CA        -83.7444   27.9007  -75.0828 C.3       0 UNK        -0.1998 
      2 C         -82.4494   27.3782  -74.4813 C.2       0 UNK         0.4909 
      3 O         -81.9974   26.2969  -74.8574 O.2       0 UNK        -0.5240 
      4 N         -81.8408   28.1466  -73.5660 N.am      1 UNK        -0.4739 
      5 CA        -80.6049   27.8241  -72.8358 C.3       1 UNK         0.0864 
      6 C6        -80.8302   26.7667  -71.7175 C.3       11 UNK        -0.0881 
      7 S7        -81.4886   27.5846  -70.2178 S.3       11 UNK        -0.2682 
      8 C8        -80.0559   27.7313  -69.0814 C.3       11 UNK         0.0289 
      9 C9        -78.7063   27.8108  -69.7863 C.ar      11 UNK        -0.0687 
     10 C10       -77.8505   26.7061  -69.7645 C.ar      11 UNK        -0.0823 
     11 C11       -76.6501   26.7216  -70.4773 C.ar      11 UNK        -0.0830 
     12 C12       -76.3028   27.8571  -71.2151 C.ar      11 UNK        -0.1021 
     13 C13       -77.1420   28.9762  -71.2320 C.ar      11 UNK        -0.0753 
     14 C14       -78.3312   28.9575  -70.4943 C.ar      11 UNK        -0.0933 
     15 C15       -76.7858   30.1781  -72.0934 C.3       11 UNK         0.0166 
     16 S16       -75.3279   31.0533  -71.4520 S.3       11 UNK        -0.2615 
     17 C17       -75.0487   32.2985  -72.7629 C.3       11 UNK        -0.0865 
     18 CA        -73.9027   31.9436  -73.7488 C.3       10 UNK         0.0862 
     19 C         -72.5081   31.9244  -73.0545 C.2       10 UNK         0.5551 
     20 N         -71.8532   30.7773  -72.9134 N.am      10 UNK        -0.7319 
     21 O         -72.0106   32.9728  -72.6508 O.2       10 UNK        -0.5018 
     22 N         -74.2108   30.7347  -74.5262 N.am      10 UNK        -0.4509 
     23 C         -73.6600   30.4273  -75.7062 C.2       10 UNK         0.4899 
     24 O         -72.9029   31.1702  -76.3333 O.2       10 UNK        -0.4839 
     25 CA        -73.9974   29.0349  -76.2657 C.3       9 UNK         0.0222 
     26 CB        -74.2358   29.0721  -77.7858 C.3       9 UNK        -0.1966 
     27 N         -72.9512   28.0538  -75.9784 N.am      9 UNK        -0.4218 
     28 C         -72.5388   27.6665  -74.7633 C.2       9 UNK         0.5020 
     29 O         -72.9647   28.1387  -73.7068 O.2       9 UNK        -0.5274 
     30 CA        -71.4928   26.5422  -74.7365 C.3       8 UNK         0.0270 
     31 CB        -71.3011   25.9300  -73.3344 C.3       8 UNK        -0.1976 
     32 N         -71.8571   25.4893  -75.6882 N.am      8 UNK        -0.4313 
     33 C         -70.9848   24.7825  -76.4203 C.2       8 UNK         0.5041 
     34 O         -69.7701   24.9889  -76.4062 O.2       8 UNK        -0.5577 
     35 CA        -71.5229   23.6363  -77.3014 C.3       7 UNK         0.0284 
     36 CB        -71.0576   22.2765  -76.7523 C.3       7 UNK        -0.1958 
     37 N         -72.9815   23.6143  -77.4249 N.am      7 UNK        -0.4454 
     38 C         -73.6959   24.3837  -78.2564 C.2       7 UNK         0.5089 
     39 O         -73.1965   25.1817  -79.0498 O.2       7 UNK        -0.5125 
     40 CA        -75.2303   24.2600  -78.1652 C.3       6 UNK         0.0408 
     41 CB        -75.7514   23.2553  -79.2039 C.3       6 UNK        -0.1791 
     42 N         -75.7376   23.8897  -76.8354 N.am      6 UNK        -0.4762 
     43 C         -75.5152   24.5825  -75.7088 C.2       6 UNK         0.5007 
     44 O         -74.7941   25.5781  -75.6703 O.2       6 UNK        -0.5032 
     45 CA        -76.1865   24.0762  -74.4176 C.3       5 UNK         0.0783 
     46 C46       -75.7939   24.9433  -73.1950 C.3       11 UNK        -0.0857 
     47 S47       -76.3365   24.2205  -71.6162 S.3       11 UNK        -0.2512 
     48 C48       -75.7476   25.4975  -70.4601 C.3       11 UNK         0.0225 
     49 N         -77.6375   24.0229  -74.6027 N.am      5 UNK        -0.4615 
     50 C         -78.3133   22.9907  -75.1186 C.2       4 UNK         0.5053 
     51 O         -77.7806   21.9417  -75.4824 O.2       4 UNK        -0.5105 
     52 CA        -79.8260   23.1844  -75.3081 C.3       4 UNK         0.0263 
     53 CB        -80.5561   23.2212  -73.9550 C.3       4 UNK        -0.1981 
     54 N         -80.1226   24.4025  -76.0637 N.am      4 UNK        -0.4224 
     55 C         -79.8343   24.5839  -77.3618 C.2       3 UNK         0.4895 
     56 O         -79.3731   23.7070  -78.0926 O.2       3 UNK        -0.5091 
     57 CA        -80.0825   25.9860  -77.9399 C.3       3 UNK         0.0250 
     58 CB        -81.5601   26.1791  -78.3193 C.3       3 UNK        -0.1996 
     59 N         -79.6617   27.0263  -76.9996 N.am      3 UNK        -0.4254 
     60 C         -78.3860   27.4027  -76.8260 C.2       2 UNK         0.5004 
     61 O         -77.4605   27.0127  -77.5353 O.2       2 UNK        -0.5226 
     62 CA        -78.0764   28.3810  -75.6777 C.3       2 UNK         0.0269 
     63 CB        -77.7958   29.7905  -76.2242 C.3       2 UNK        -0.1926 
     64 N         -79.1316   28.4711  -74.6660 N.am      2 UNK        -0.4687 
     65 C         -79.4368   27.5028  -73.7914 C.2       1 UNK         0.5165 
     66 O         -78.8765   26.4073  -73.7687 O.2       1 UNK        -0.5079 
     67 H67       -83.6336   28.0274  -76.1593 H         1 UNK         0.0900 
     68 H68       -84.5513   27.1903  -74.9048 H         1 UNK         0.0900 
     69 H69       -84.0362   28.8597  -74.6552 H         1 UNK         0.0900 
     70 H70       -82.2683   29.0264  -73.3110 H         1 UNK         0.2959 
     71 H71       -80.3009   28.7562  -72.3597 H         1 UNK         0.1079 
     72 H72       -81.5367   26.0022  -72.0439 H         1 UNK         0.0837 
     73 H73       -79.9230   26.2179  -71.4669 H         1 UNK         0.0837 
     74 H74       -80.1905   28.6173  -68.4594 H         1 UNK         0.0685 
     75 H75       -80.0746   26.8810  -68.3979 H         1 UNK         0.0685 
     76 H76       -78.1332   25.8154  -69.2198 H         1 UNK         0.1434 
     77 H77       -75.3838   27.8686  -71.7867 H         1 UNK         0.1329 
     78 H78       -78.9918   29.8135  -70.5103 H         1 UNK         0.1335 
     79 H79       -77.6239   30.8742  -72.1538 H         1 UNK         0.0680 
     80 H80       -76.5922   29.8367  -73.1106 H         1 UNK         0.0680 
     81 H81       -75.9748   32.4575  -73.3176 H         1 UNK         0.1032 
     82 H82       -74.8396   33.2547  -72.2795 H         1 UNK         0.1032 
     83 H83       -73.8538   32.7678  -74.4635 H         1 UNK         0.0461 
     84 H84       -70.9512   30.7735  -72.4655 H         1 UNK         0.3453 
     85 H85       -72.2809   29.9043  -73.2063 H         1 UNK         0.3453 
     86 H86       -74.7221   30.0175  -74.0336 H         1 UNK         0.2984 
     87 H87       -74.9163   28.6847  -75.7924 H         1 UNK         0.0554 
     88 H88       -74.9519   29.8483  -78.0562 H         1 UNK         0.0847 
     89 H89       -74.6362   28.1227  -78.1441 H         1 UNK         0.0847 
     90 H90       -73.3167   29.2794  -78.3353 H         1 UNK         0.0847 
     91 H91       -72.5318   27.6049  -76.7793 H         1 UNK         0.3141 
     92 H92       -70.5504   27.0035  -75.0393 H         1 UNK         0.0743 
     93 H93       -70.9978   26.6894  -72.6124 H         1 UNK         0.0784 
     94 H94       -72.2218   25.4765  -72.9661 H         1 UNK         0.0784 
     95 H95       -70.5270   25.1625  -73.3389 H         1 UNK         0.0784 
     96 H96       -72.8561   25.3203  -75.7865 H         1 UNK         0.3213 
     97 H97       -71.0904   23.7658  -78.2961 H         1 UNK         0.0855 
     98 H98       -71.4498   22.0885  -75.7520 H         1 UNK         0.0814 
     99 H99       -69.9694   22.2320  -76.6880 H         1 UNK         0.0814 
    100 H100      -71.3738   21.4573  -77.3983 H         1 UNK         0.0814 
    101 H101      -73.4835   22.9876  -76.8127 H         1 UNK         0.3105 
    102 H102      -75.6437   25.2407  -78.4069 H         1 UNK         0.0547 
    103 H103      -76.8412   23.2406  -79.2285 H         1 UNK         0.0837 
    104 H104      -75.4109   23.5178  -80.2066 H         1 UNK         0.0837 
    105 H105      -75.4053   22.2422  -78.9961 H         1 UNK         0.0837 
    106 H106      -76.3570   23.0893  -76.7851 H         1 UNK         0.3020 
    107 H107      -75.8069   23.0668  -74.2428 H         1 UNK         0.1245 
    108 H108      -76.2108   25.9468  -73.2942 H         1 UNK         0.0781 
    109 H109      -74.7104   25.0640  -73.1365 H         1 UNK         0.0781 
    110 H110      -74.7185   25.7703  -70.7001 H         1 UNK         0.0836 
    111 H111      -75.7229   25.0775  -69.4534 H         1 UNK         0.0836 
    112 H112      -78.1472   24.8634  -74.3316 H         1 UNK         0.3022 
    113 H113      -80.2058   22.3323  -75.8757 H         1 UNK         0.0747 
    114 H114      -81.6351   23.2982  -74.0905 H         1 UNK         0.0793 
    115 H115      -80.3629   22.3133  -73.3823 H         1 UNK         0.0793 
    116 H116      -80.2384   24.0668  -73.3439 H         1 UNK         0.0793 
    117 H117      -80.5616   25.1614  -75.5487 H         1 UNK         0.3047 
    118 H118      -79.4906   26.0792  -78.8534 H         1 UNK         0.0822 
    119 H119      -81.8642   25.4472  -79.0687 H         1 UNK         0.0807 
    120 H120      -81.7349   27.1679  -78.7436 H         1 UNK         0.0807 
    121 H121      -82.2241   26.0583  -77.4638 H         1 UNK         0.0807 
    122 H122      -80.3589   27.3746  -76.3577 H         1 UNK         0.2946 
    123 H123      -77.1722   28.0088  -75.1897 H         1 UNK         0.1144 
    124 H124      -77.4348   30.4587  -75.4424 H         1 UNK         0.0793 
    125 H125      -78.6885   30.2369  -76.6639 H         1 UNK         0.0793 
    126 H126      -77.0347   29.7645  -77.0031 H         1 UNK         0.0793 
    127 H127      -79.6678   29.3270  -74.6461 H         1 UNK         0.2896 
@<TRIPOS>BOND
     1    1    2 1    
     2    1   67 1    
     3    1   68 1    
     4    1   69 1    
     5    2    3 2    
     6    2    4 am   BACKBONE|DICT|INTERRES
     7    4    5 1    
     8    4   70 1    
     9    5    6 1    
    10    5   65 1    
    11    5   71 1    
    12    6    7 1    
    13    6   72 1    
    14    6   73 1    
    15    7    8 1    
    16    8    9 1    
    17    8   74 1    
    18    8   75 1    
    19    9   10 ar   
    20    9   14 ar   
    21   10   11 ar   
    22   10   76 1    
    23   11   12 ar   
    24   11   48 1    
    25   12   13 ar   
    26   12   77 1    
    27   13   14 ar   
    28   13   15 1    
    29   14   78 1    
    30   15   16 1    
    31   15   79 1    
    32   15   80 1    
    33   16   17 1    
    34   17   18 1    
    35   17   81 1    
    36   17   82 1    
    37   18   19 1    
    38   18   22 1    
    39   18   83 1    
    40   19   20 am   BACKBONE|DICT|INTERRES
    41   19   21 2    
    42   20   84 1    
    43   20   85 1    
    44   22   23 am   BACKBONE|DICT|INTERRES
    45   22   86 1    
    46   23   24 2    
    47   23   25 1    
    48   25   26 1    
    49   25   27 1    
    50   25   87 1    
    51   26   88 1    
    52   26   89 1    
    53   26   90 1    
    54   27   28 am   BACKBONE|DICT|INTERRES
    55   27   91 1    
    56   28   29 2    
    57   28   30 1    
    58   30   31 1    
    59   30   32 1    
    60   30   92 1    
    61   31   93 1    
    62   31   94 1    
    63   31   95 1    
    64   32   33 am   BACKBONE|DICT|INTERRES
    65   32   96 1    
    66   33   34 2    
    67   33   35 1    
    68   35   36 1    
    69   35   37 1    
    70   35   97 1    
    71   36   98 1    
    72   36   99 1    
    73   36  100 1    
    74   37   38 am   BACKBONE|DICT|INTERRES
    75   37  101 1    
    76   38   39 2    
    77   38   40 1    
    78   40   41 1    
    79   40   42 1    
    80   40  102 1    
    81   41  103 1    
    82   41  104 1    
    83   41  105 1    
    84   42   43 am   BACKBONE|DICT|INTERRES
    85   42  106 1    
    86   43   44 2    
    87   43   45 1    
    88   45   46 1    
    89   45   49 1    
    90   45  107 1    
    91   46   47 1    
    92   46  108 1    
    93   46  109 1    
    94   47   48 1    
    95   48  110 1    
    96   48  111 1    
    97   49   50 am   BACKBONE|DICT|INTERRES
    98   49  112 1    
    99   50   51 2    
   100   50   52 1    
   101   52   53 1    
   102   52   54 1    
   103   52  113 1    
   104   53  114 1    
   105   53  115 1    
   106   53  116 1    
   107   54   55 am   BACKBONE|DICT|INTERRES
   108   54  117 1    
   109   55   56 2    
   110   55   57 1    
   111   57   58 1    
   112   57   59 1    
   113   57  118 1    
   114   58  119 1    
   115   58  120 1    
   116   58  121 1    
   117   59   60 am   BACKBONE|DICT|INTERRES
   118   59  122 1    
   119   60   61 2    
   120   60   62 1    
   121   62   63 1    
   122   62   64 1    
   123   62  123 1    
   124   63  124 1    
   125   63  125 1    
   126   63  126 1    
   127   64   65 am   BACKBONE|DICT|INTERRES
   128   64  127 1    
   129   65   66 2    
@<TRIPOS>SUBSTRUCTURE
     1 UNK         1 GROUP             0       ****    0 ROOT    
