@<TRIPOS>MOLECULE
3R135
127   129    1
SMALL
USER_CHARGES


@<TRIPOS>ATOM
      1 CA        -83.1267   23.4917  -70.9497 C.3       0 UNK        -0.1998 
      2 C         -81.7644   23.1844  -71.5645 C.2       0 UNK         0.4909 
      3 O         -81.3463   22.0283  -71.5619 O.2       0 UNK        -0.5240 
      4 N         -81.0345   24.1711  -72.0977 N.am      1 UNK        -0.4739 
      5 CA        -81.4015   25.5811  -72.2113 C.3       1 UNK         0.0864 
      6 C6        -80.8856   26.3969  -71.0009 C.3       11 UNK        -0.0881 
      7 S7        -81.7088   28.0164  -70.8670 S.3       11 UNK        -0.2682 
      8 C8        -80.3909   29.0256  -70.1185 C.3       11 UNK         0.0289 
      9 C9        -79.2445   29.2991  -71.0831 C.ar      11 UNK        -0.0687 
     10 C10       -79.4514   30.1081  -72.2041 C.ar      11 UNK        -0.0823 
     11 C11       -78.4003   30.4041  -73.0774 C.ar      11 UNK        -0.0830 
     12 C12       -77.1252   29.8966  -72.8034 C.ar      11 UNK        -0.1021 
     13 C13       -76.9096   29.0660  -71.7006 C.ar      11 UNK        -0.0753 
     14 C14       -77.9723   28.7706  -70.8420 C.ar      11 UNK        -0.0933 
     15 C15       -75.5240   28.4998  -71.4392 C.3       11 UNK         0.0166 
     16 S16       -74.4905   29.7192  -70.5740 S.3       11 UNK        -0.2615 
     17 C17       -72.8578   28.9051  -70.5938 C.3       11 UNK        -0.0865 
     18 CA        -71.9358   29.4783  -71.7039 C.3       10 UNK         0.0862 
     19 C         -70.4483   29.0640  -71.4912 C.2       10 UNK         0.5551 
     20 N         -69.7540   28.4965  -72.4709 N.am      10 UNK        -0.7319 
     21 O         -69.9044   29.2741  -70.4098 O.2       10 UNK        -0.5018 
     22 N         -72.4596   29.1643  -73.0421 N.am      10 UNK        -0.4509 
     23 C         -72.2979   29.9176  -74.1362 C.2       10 UNK         0.4899 
     24 O         -71.7605   31.0262  -74.1339 O.2       10 UNK        -0.4839 
     25 CA        -72.8166   29.3070  -75.4557 C.3       9 UNK         0.0222 
     26 CB        -72.2105   29.9795  -76.7053 C.3       9 UNK        -0.1966 
     27 N         -72.6526   27.8458  -75.5209 N.am      9 UNK        -0.4218 
     28 C         -71.5015   27.1634  -75.4129 C.2       9 UNK         0.5020 
     29 O         -70.4005   27.6930  -75.2580 O.2       9 UNK        -0.5274 
     30 CA        -71.5861   25.6333  -75.4271 C.3       8 UNK         0.0270 
     31 CB        -71.8423   25.1068  -74.0037 C.3       8 UNK        -0.1976 
     32 N         -72.6347   25.1378  -76.3225 N.am      8 UNK        -0.4313 
     33 C         -72.4001   24.5393  -77.4967 C.2       8 UNK         0.5041 
     34 O         -71.2808   24.4252  -77.9994 O.2       8 UNK        -0.5577 
     35 CA        -73.6038   23.9126  -78.2153 C.3       7 UNK         0.0284 
     36 CB        -74.0051   22.5945  -77.5322 C.3       7 UNK        -0.1958 
     37 N         -74.7686   24.7954  -78.3127 N.am      7 UNK        -0.4454 
     38 C         -74.8688   25.8021  -79.1927 C.2       7 UNK         0.5089 
     39 O         -73.9501   26.1622  -79.9296 O.2       7 UNK        -0.5125 
     40 CA        -76.2354   26.5017  -79.3030 C.3       6 UNK         0.0408 
     41 CB        -77.2606   25.5958  -80.0046 C.3       6 UNK        -0.1791 
     42 N         -76.7641   26.9243  -78.0083 N.am      6 UNK        -0.4762 
     43 C         -76.2637   27.9283  -77.2759 C.2       6 UNK         0.5007 
     44 O         -75.3313   28.6427  -77.6417 O.2       6 UNK        -0.5032 
     45 CA        -76.8864   28.1405  -75.8799 C.3       5 UNK         0.0783 
     46 C46       -78.1717   29.0062  -75.9487 C.3       11 UNK        -0.0857 
     47 S47       -77.7767   30.7831  -75.8148 S.3       11 UNK        -0.2512 
     48 C48       -78.6685   31.2828  -74.2987 C.3       11 UNK         0.0225 
     49 N         -77.1048   26.8746  -75.1750 N.am      5 UNK        -0.4615 
     50 C         -76.1382   25.9999  -74.8663 C.2       4 UNK         0.5053 
     51 O         -74.9409   26.2024  -75.0669 O.2       4 UNK        -0.5105 
     52 CA        -76.5820   24.6500  -74.2893 C.3       4 UNK         0.0263 
     53 CB        -76.7334   24.7353  -72.7617 C.3       4 UNK        -0.1981 
     54 N         -77.8304   24.1898  -74.9033 N.am      4 UNK        -0.4224 
     55 C         -77.9262   23.7352  -76.1621 C.2       3 UNK         0.4895 
     56 O         -76.9625   23.6036  -76.9144 O.2       3 UNK        -0.5091 
     57 CA        -79.3362   23.4209  -76.6914 C.3       3 UNK         0.0250 
     58 CB        -79.7770   22.0147  -76.2558 C.3       3 UNK        -0.1996 
     59 N         -80.3356   24.4037  -76.2672 N.am      3 UNK        -0.4254 
     60 C         -80.3253   25.6987  -76.6160 C.2       2 UNK         0.5004 
     61 O         -79.5115   26.1892  -77.3974 O.2       2 UNK        -0.5226 
     62 CA        -81.3600   26.6127  -75.9335 C.3       2 UNK         0.0269 
     63 CB        -82.6351   26.7089  -76.7855 C.3       2 UNK        -0.1926 
     64 N         -81.7139   26.2052  -74.5659 N.am      2 UNK        -0.4687 
     65 C         -80.8418   26.0721  -73.5552 C.2       1 UNK         0.5165 
     66 O         -79.6279   26.2419  -73.6820 O.2       1 UNK        -0.5079 
     67 H67       -83.4837   22.6404  -70.3704 H         1 UNK         0.0900 
     68 H68       -83.0766   24.3475  -70.2773 H         1 UNK         0.0900 
     69 H69       -83.8606   23.6970  -71.7285 H         1 UNK         0.0900 
     70 H70       -80.1297   23.9449  -72.4845 H         1 UNK         0.2959 
     71 H71       -82.4881   25.6756  -72.2555 H         1 UNK         0.1079 
     72 H72       -81.0862   25.8611  -70.0721 H         1 UNK         0.0837 
     73 H73       -79.8015   26.5161  -71.0422 H         1 UNK         0.0837 
     74 H74       -80.8178   29.9772  -69.7989 H         1 UNK         0.0685 
     75 H75       -80.0325   28.5332  -69.2130 H         1 UNK         0.0685 
     76 H76       -80.4386   30.5083  -72.3919 H         1 UNK         0.1434 
     77 H77       -76.2958   30.1423  -73.4511 H         1 UNK         0.1329 
     78 H78       -77.8042   28.1414  -69.9787 H         1 UNK         0.1335 
     79 H79       -75.5879   27.5872  -70.8444 H         1 UNK         0.0680 
     80 H80       -75.0606   28.2215  -72.3866 H         1 UNK         0.0680 
     81 H81       -72.4177   29.0647  -69.6075 H         1 UNK         0.1032 
     82 H82       -72.9718   27.8246  -70.6974 H         1 UNK         0.1032 
     83 H83       -71.9389   30.5643  -71.5912 H         1 UNK         0.0461 
     84 H84       -70.1549   28.3419  -73.3893 H         1 UNK         0.3453 
     85 H85       -68.7928   28.2464  -72.3026 H         1 UNK         0.3453 
     86 H86       -72.8877   28.2579  -73.1483 H         1 UNK         0.2984 
     87 H87       -73.8896   29.4969  -75.4687 H         1 UNK         0.0554 
     88 H88       -72.6096   29.5421  -77.6207 H         1 UNK         0.0847 
     89 H89       -71.1247   29.8832  -76.7319 H         1 UNK         0.0847 
     90 H90       -72.4444   31.0445  -76.7295 H         1 UNK         0.0847 
     91 H91       -73.5141   27.3072  -75.5717 H         1 UNK         0.3141 
     92 H92       -70.6099   25.2594  -75.7437 H         1 UNK         0.0743 
     93 H93       -72.8020   25.4411  -73.6085 H         1 UNK         0.0784 
     94 H94       -71.8341   24.0170  -73.9799 H         1 UNK         0.0784 
     95 H95       -71.0687   25.4504  -73.3151 H         1 UNK         0.0784 
     96 H96       -73.5925   25.2485  -76.0012 H         1 UNK         0.3213 
     97 H97       -73.2840   23.6678  -79.2309 H         1 UNK         0.0855 
     98 H98       -74.3567   22.7561  -76.5125 H         1 UNK         0.0814 
     99 H99       -73.1594   21.9074  -77.4807 H         1 UNK         0.0814 
    100 H100      -74.7993   22.0894  -78.0822 H         1 UNK         0.0814 
    101 H101      -75.5875   24.5308  -77.7682 H         1 UNK         0.3105 
    102 H102      -76.1040   27.3935  -79.9197 H         1 UNK         0.0547 
    103 H103      -76.8975   25.2796  -80.9833 H         1 UNK         0.0837 
    104 H104      -77.4708   24.6949  -79.4272 H         1 UNK         0.0837 
    105 H105      -78.2055   26.1164  -80.1615 H         1 UNK         0.0837 
    106 H106      -77.5858   26.4355  -77.6625 H         1 UNK         0.3020 
    107 H107      -76.1385   28.6696  -75.2880 H         1 UNK         0.1245 
    108 H108      -78.8538   28.7374  -75.1412 H         1 UNK         0.0781 
    109 H109      -78.7350   28.8328  -76.8679 H         1 UNK         0.0781 
    110 H110      -79.7354   31.2940  -74.5275 H         1 UNK         0.0836 
    111 H111      -78.3959   32.3104  -74.0555 H         1 UNK         0.0836 
    112 H112      -78.0579   26.6521  -74.9089 H         1 UNK         0.3022 
    113 H113      -75.8018   23.9188  -74.5120 H         1 UNK         0.0747 
    114 H114      -77.0450   23.7802  -72.3389 H         1 UNK         0.0793 
    115 H115      -75.7837   25.0007  -72.2952 H         1 UNK         0.0793 
    116 H116      -77.4598   25.4906  -72.4607 H         1 UNK         0.0793 
    117 H117      -78.6793   24.3734  -74.3885 H         1 UNK         0.3047 
    118 H118      -79.2897   23.4424  -77.7825 H         1 UNK         0.0822 
    119 H119      -80.7359   21.7448  -76.6988 H         1 UNK         0.0807 
    120 H120      -79.8733   21.9353  -75.1720 H         1 UNK         0.0807 
    121 H121      -79.0527   21.2636  -76.5746 H         1 UNK         0.0807 
    122 H122      -81.0526   24.0867  -75.6313 H         1 UNK         0.2946 
    123 H123      -80.9164   27.6083  -75.8730 H         1 UNK         0.1144 
    124 H124      -83.3356   27.4347  -76.3720 H         1 UNK         0.0793 
    125 H125      -83.1476   25.7488  -76.8576 H         1 UNK         0.0793 
    126 H126      -82.4016   27.0308  -77.8016 H         1 UNK         0.0793 
    127 H127      -82.6927   26.0246  -74.3932 H         1 UNK         0.2896 
@<TRIPOS>BOND
     1    1    2 1    
     2    1   67 1    
     3    1   68 1    
     4    1   69 1    
     5    2    3 2    
     6    2    4 am   BACKBONE|DICT|INTERRES
     7    4    5 1    
     8    4   70 1    
     9    5    6 1    
    10    5   65 1    
    11    5   71 1    
    12    6    7 1    
    13    6   72 1    
    14    6   73 1    
    15    7    8 1    
    16    8    9 1    
    17    8   74 1    
    18    8   75 1    
    19    9   10 ar   
    20    9   14 ar   
    21   10   11 ar   
    22   10   76 1    
    23   11   12 ar   
    24   11   48 1    
    25   12   13 ar   
    26   12   77 1    
    27   13   14 ar   
    28   13   15 1    
    29   14   78 1    
    30   15   16 1    
    31   15   79 1    
    32   15   80 1    
    33   16   17 1    
    34   17   18 1    
    35   17   81 1    
    36   17   82 1    
    37   18   19 1    
    38   18   22 1    
    39   18   83 1    
    40   19   20 am   BACKBONE|DICT|INTERRES
    41   19   21 2    
    42   20   84 1    
    43   20   85 1    
    44   22   23 am   BACKBONE|DICT|INTERRES
    45   22   86 1    
    46   23   24 2    
    47   23   25 1    
    48   25   26 1    
    49   25   27 1    
    50   25   87 1    
    51   26   88 1    
    52   26   89 1    
    53   26   90 1    
    54   27   28 am   BACKBONE|DICT|INTERRES
    55   27   91 1    
    56   28   29 2    
    57   28   30 1    
    58   30   31 1    
    59   30   32 1    
    60   30   92 1    
    61   31   93 1    
    62   31   94 1    
    63   31   95 1    
    64   32   33 am   BACKBONE|DICT|INTERRES
    65   32   96 1    
    66   33   34 2    
    67   33   35 1    
    68   35   36 1    
    69   35   37 1    
    70   35   97 1    
    71   36   98 1    
    72   36   99 1    
    73   36  100 1    
    74   37   38 am   BACKBONE|DICT|INTERRES
    75   37  101 1    
    76   38   39 2    
    77   38   40 1    
    78   40   41 1    
    79   40   42 1    
    80   40  102 1    
    81   41  103 1    
    82   41  104 1    
    83   41  105 1    
    84   42   43 am   BACKBONE|DICT|INTERRES
    85   42  106 1    
    86   43   44 2    
    87   43   45 1    
    88   45   46 1    
    89   45   49 1    
    90   45  107 1    
    91   46   47 1    
    92   46  108 1    
    93   46  109 1    
    94   47   48 1    
    95   48  110 1    
    96   48  111 1    
    97   49   50 am   BACKBONE|DICT|INTERRES
    98   49  112 1    
    99   50   51 2    
   100   50   52 1    
   101   52   53 1    
   102   52   54 1    
   103   52  113 1    
   104   53  114 1    
   105   53  115 1    
   106   53  116 1    
   107   54   55 am   BACKBONE|DICT|INTERRES
   108   54  117 1    
   109   55   56 2    
   110   55   57 1    
   111   57   58 1    
   112   57   59 1    
   113   57  118 1    
   114   58  119 1    
   115   58  120 1    
   116   58  121 1    
   117   59   60 am   BACKBONE|DICT|INTERRES
   118   59  122 1    
   119   60   61 2    
   120   60   62 1    
   121   62   63 1    
   122   62   64 1    
   123   62  123 1    
   124   63  124 1    
   125   63  125 1    
   126   63  126 1    
   127   64   65 am   BACKBONE|DICT|INTERRES
   128   64  127 1    
   129   65   66 2    
@<TRIPOS>SUBSTRUCTURE
     1 UNK         1 GROUP             0       ****    0 ROOT    
