@<TRIPOS>MOLECULE
3R135
127   129    1
SMALL
USER_CHARGES


@<TRIPOS>ATOM
      1 CA        -83.8813   26.8365  -71.9819 C.3       0 UNK        -0.1998 
      2 C         -83.4597   27.6473  -73.1981 C.2       0 UNK         0.4909 
      3 O         -84.2739   27.8800  -74.0919 O.2       0 UNK        -0.5240 
      4 N         -82.1926   28.0798  -73.2356 N.am      1 UNK        -0.4739 
      5 CA        -81.6033   28.8495  -74.3395 C.3       1 UNK         0.0864 
      6 C6        -80.3144   29.5834  -73.8977 C.3       11 UNK        -0.0881 
      7 S7        -80.6757   31.0114  -72.8156 S.3       11 UNK        -0.2682 
      8 C8        -80.6081   30.3121  -71.1310 C.3       11 UNK         0.0289 
      9 C9        -79.2653   29.6709  -70.8106 C.ar      11 UNK        -0.0687 
     10 C10       -79.1853   28.3032  -70.5301 C.ar      11 UNK        -0.0823 
     11 C11       -77.9518   27.7016  -70.2613 C.ar      11 UNK        -0.0830 
     12 C12       -76.7943   28.4886  -70.2534 C.ar      11 UNK        -0.1021 
     13 C13       -76.8604   29.8513  -70.5560 C.ar      11 UNK        -0.0753 
     14 C14       -78.0999   30.4419  -70.8121 C.ar      11 UNK        -0.0933 
     15 C15       -75.5873   30.6712  -70.6659 C.3       11 UNK         0.0166 
     16 S16       -75.1326   30.8842  -72.4164 S.3       11 UNK        -0.2615 
     17 C17       -73.3270   31.1259  -72.2979 C.3       11 UNK        -0.0865 
     18 CA        -72.5119   29.8860  -72.7581 C.3       10 UNK         0.0862 
     19 C         -72.6235   28.6814  -71.7819 C.2       10 UNK         0.5551 
     20 N         -73.0114   27.4922  -72.2264 N.am      10 UNK        -0.7319 
     21 O         -72.3234   28.8230  -70.5992 O.2       10 UNK        -0.5018 
     22 N         -72.7495   29.5397  -74.1682 N.am      10 UNK        -0.4509 
     23 C         -72.1493   30.1245  -75.2095 C.2       10 UNK         0.4899 
     24 O         -71.3797   31.0825  -75.1125 O.2       10 UNK        -0.4839 
     25 CA        -72.4465   29.5008  -76.5853 C.3       9 UNK         0.0222 
     26 CB        -71.6786   30.1743  -77.7420 C.3       9 UNK        -0.1966 
     27 N         -72.2256   28.0502  -76.5835 N.am      9 UNK        -0.4218 
     28 C         -71.0889   27.3864  -76.3183 C.2       9 UNK         0.5020 
     29 O         -70.0078   27.9297  -76.0872 O.2       9 UNK        -0.5274 
     30 CA        -71.1641   25.8475  -76.2841 C.3       8 UNK         0.0270 
     31 CB        -71.1351   25.3465  -74.8308 C.3       8 UNK        -0.1976 
     32 N         -72.3502   25.3053  -76.9536 N.am      8 UNK        -0.4313 
     33 C         -72.5172   25.2582  -78.2830 C.2       8 UNK         0.5041 
     34 O         -71.6505   25.5854  -79.0946 O.2       8 UNK        -0.5577 
     35 CA        -73.8974   24.8084  -78.7932 C.3       7 UNK         0.0284 
     36 CB        -74.0078   23.2760  -78.7899 C.3       7 UNK        -0.1958 
     37 N         -75.0033   25.3911  -78.0258 N.am      7 UNK        -0.4454 
     38 C         -75.2807   26.7025  -77.9688 C.2       7 UNK         0.5089 
     39 O         -74.6576   27.5631  -78.5886 O.2       7 UNK        -0.5125 
     40 CA        -76.4171   27.1391  -77.0328 C.3       6 UNK         0.0408 
     41 CB        -77.7759   27.0407  -77.7397 C.3       6 UNK        -0.1791 
     42 N         -76.4438   26.3638  -75.7931 N.am      6 UNK        -0.4762 
     43 C         -75.5477   26.4881  -74.8039 C.2       6 UNK         0.5007 
     44 O         -74.6091   27.2898  -74.8092 O.2       6 UNK        -0.5032 
     45 CA        -75.7090   25.5252  -73.6142 C.3       5 UNK         0.0783 
     46 C46       -76.8024   26.0326  -72.6480 C.3       11 UNK        -0.0857 
     47 S47       -76.5772   25.3442  -70.9744 S.3       11 UNK        -0.2512 
     48 C48       -77.8820   26.1956  -70.0168 C.3       11 UNK         0.0225 
     49 N         -75.9510   24.1478  -74.0495 N.am      5 UNK        -0.4615 
     50 C         -75.0836   23.4147  -74.7602 C.2       4 UNK         0.5053 
     51 O         -73.9768   23.8168  -75.1159 O.2       4 UNK        -0.5105 
     52 CA        -75.5402   22.0101  -75.1846 C.3       4 UNK         0.0263 
     53 CB        -75.2158   20.9876  -74.0843 C.3       4 UNK        -0.1981 
     54 N         -76.9617   21.9219  -75.5311 N.am      4 UNK        -0.4224 
     55 C         -77.5884   22.6525  -76.4650 C.2       3 UNK         0.4895 
     56 O         -77.0358   23.5300  -77.1327 O.2       3 UNK        -0.5091 
     57 CA        -79.0787   22.3472  -76.7122 C.3       3 UNK         0.0250 
     58 CB        -79.7287   21.4376  -75.6425 C.3       3 UNK        -0.1996 
     59 N         -79.8769   23.5637  -76.8992 N.am      3 UNK        -0.4254 
     60 C         -80.0488   24.5619  -76.0206 C.2       2 UNK         0.5004 
     61 O         -79.4913   24.6252  -74.9206 O.2       2 UNK        -0.5226 
     62 CA        -81.0257   25.6661  -76.4513 C.3       2 UNK         0.0269 
     63 CB        -82.4290   25.1023  -76.7546 C.3       2 UNK        -0.1926 
     64 N         -81.1430   26.6702  -75.3964 N.am      2 UNK        -0.4687 
     65 C         -81.3554   27.9776  -75.5899 C.2       1 UNK         0.5165 
     66 O         -81.3901   28.5009  -76.7046 O.2       1 UNK        -0.5079 
     67 H67       -83.0673   26.7173  -71.2672 H         1 UNK         0.0900 
     68 H68       -84.7097   27.3284  -71.4726 H         1 UNK         0.0900 
     69 H69       -84.2110   25.8444  -72.2892 H         1 UNK         0.0900 
     70 H70       -81.5697   27.8585  -72.4742 H         1 UNK         0.2959 
     71 H71       -82.3317   29.6044  -74.6457 H         1 UNK         0.1079 
     72 H72       -79.7875   29.9852  -74.7659 H         1 UNK         0.0837 
     73 H73       -79.6115   28.8999  -73.4190 H         1 UNK         0.0837 
     74 H74       -81.4249   29.6013  -71.0031 H         1 UNK         0.0685 
     75 H75       -80.7931   31.1139  -70.4150 H         1 UNK         0.0685 
     76 H76       -80.0836   27.7018  -70.5334 H         1 UNK         0.1434 
     77 H77       -75.8338   28.0283  -70.0645 H         1 UNK         0.1329 
     78 H78       -78.1533   31.4949  -71.0535 H         1 UNK         0.1335 
     79 H79       -74.7791   30.1784  -70.1237 H         1 UNK         0.0680 
     80 H80       -75.7241   31.6491  -70.2020 H         1 UNK         0.0680 
     81 H81       -73.0511   31.4140  -71.2819 H         1 UNK         0.1032 
     82 H82       -73.0640   31.9835  -72.9187 H         1 UNK         0.1032 
     83 H83       -71.4588   30.1642  -72.6830 H         1 UNK         0.0461 
     84 H84       -73.0526   26.7273  -71.5726 H         1 UNK         0.3453 
     85 H85       -73.2977   27.3614  -73.1846 H         1 UNK         0.3453 
     86 H86       -73.4033   28.7835  -74.3430 H         1 UNK         0.2984 
     87 H87       -73.5123   29.6472  -76.7675 H         1 UNK         0.0554 
     88 H88       -71.9211   31.2358  -77.8046 H         1 UNK         0.0847 
     89 H89       -71.9375   29.7254  -78.7010 H         1 UNK         0.0847 
     90 H90       -70.5985   30.0951  -77.6148 H         1 UNK         0.0847 
     91 H91       -73.0550   27.4938  -76.7409 H         1 UNK         0.3141 
     92 H92       -70.2768   25.4660  -76.7936 H         1 UNK         0.0743 
     93 H93       -70.2559   25.7187  -74.3029 H         1 UNK         0.0784 
     94 H94       -72.0136   25.6750  -74.2751 H         1 UNK         0.0784 
     95 H95       -71.1023   24.2577  -74.7880 H         1 UNK         0.0784 
     96 H96       -73.0814   24.9316  -76.3508 H         1 UNK         0.3213 
     97 H97       -73.9979   25.1530  -79.8247 H         1 UNK         0.0855 
     98 H98       -73.8718   22.8651  -77.7904 H         1 UNK         0.0814 
     99 H99       -73.2449   22.8309  -79.4299 H         1 UNK         0.0814 
    100 H100      -74.9779   22.9448  -79.1612 H         1 UNK         0.0814 
    101 H101      -75.6160   24.7452  -77.5326 H         1 UNK         0.3105 
    102 H102      -76.2491   28.1868  -76.7735 H         1 UNK         0.0547 
    103 H103      -78.5726   27.4390  -77.1121 H         1 UNK         0.0837 
    104 H104      -78.0247   26.0111  -77.9989 H         1 UNK         0.0837 
    105 H105      -77.7765   27.6188  -78.6647 H         1 UNK         0.0837 
    106 H106      -77.1480   25.6411  -75.7173 H         1 UNK         0.3020 
    107 H107      -74.7528   25.5269  -73.0883 H         1 UNK         0.1245 
    108 H108      -77.8020   25.7897  -73.0133 H         1 UNK         0.0781 
    109 H109      -76.7616   27.1204  -72.5767 H         1 UNK         0.0781 
    110 H110      -77.7115   26.0182  -68.9543 H         1 UNK         0.0836 
    111 H111      -78.8365   25.7246  -70.2570 H         1 UNK         0.0836 
    112 H112      -76.8492   23.7503  -73.8151 H         1 UNK         0.3022 
    113 H113      -74.9741   21.7363  -76.0760 H         1 UNK         0.0747 
    114 H114      -74.1568   21.0189  -73.8234 H         1 UNK         0.0793 
    115 H115      -75.7817   21.1810  -73.1720 H         1 UNK         0.0793 
    116 H116      -75.4366   19.9705  -74.4086 H         1 UNK         0.0793 
    117 H117      -77.5033   21.2310  -75.0324 H         1 UNK         0.3047 
    118 H118      -79.1150   21.8129  -77.6627 H         1 UNK         0.0822 
    119 H119      -80.7827   21.2687  -75.8638 H         1 UNK         0.0807 
    120 H120      -79.6709   21.8726  -74.6437 H         1 UNK         0.0807 
    121 H121      -79.2564   20.4550  -75.6100 H         1 UNK         0.0807 
    122 H122      -80.3452   23.6321  -77.7918 H         1 UNK         0.2946 
    123 H123      -80.6221   26.1256  -77.3559 H         1 UNK         0.1144 
    124 H124      -82.8464   24.5813  -75.8919 H         1 UNK         0.0793 
    125 H125      -82.4109   24.3978  -77.5866 H         1 UNK         0.0793 
    126 H126      -83.1236   25.8968  -77.0287 H         1 UNK         0.0793 
    127 H127      -81.0472   26.3158  -74.4542 H         1 UNK         0.2896 
@<TRIPOS>BOND
     1    1    2 1    
     2    1   67 1    
     3    1   68 1    
     4    1   69 1    
     5    2    3 2    
     6    2    4 am   BACKBONE|DICT|INTERRES
     7    4    5 1    
     8    4   70 1    
     9    5    6 1    
    10    5   65 1    
    11    5   71 1    
    12    6    7 1    
    13    6   72 1    
    14    6   73 1    
    15    7    8 1    
    16    8    9 1    
    17    8   74 1    
    18    8   75 1    
    19    9   10 ar   
    20    9   14 ar   
    21   10   11 ar   
    22   10   76 1    
    23   11   12 ar   
    24   11   48 1    
    25   12   13 ar   
    26   12   77 1    
    27   13   14 ar   
    28   13   15 1    
    29   14   78 1    
    30   15   16 1    
    31   15   79 1    
    32   15   80 1    
    33   16   17 1    
    34   17   18 1    
    35   17   81 1    
    36   17   82 1    
    37   18   19 1    
    38   18   22 1    
    39   18   83 1    
    40   19   20 am   BACKBONE|DICT|INTERRES
    41   19   21 2    
    42   20   84 1    
    43   20   85 1    
    44   22   23 am   BACKBONE|DICT|INTERRES
    45   22   86 1    
    46   23   24 2    
    47   23   25 1    
    48   25   26 1    
    49   25   27 1    
    50   25   87 1    
    51   26   88 1    
    52   26   89 1    
    53   26   90 1    
    54   27   28 am   BACKBONE|DICT|INTERRES
    55   27   91 1    
    56   28   29 2    
    57   28   30 1    
    58   30   31 1    
    59   30   32 1    
    60   30   92 1    
    61   31   93 1    
    62   31   94 1    
    63   31   95 1    
    64   32   33 am   BACKBONE|DICT|INTERRES
    65   32   96 1    
    66   33   34 2    
    67   33   35 1    
    68   35   36 1    
    69   35   37 1    
    70   35   97 1    
    71   36   98 1    
    72   36   99 1    
    73   36  100 1    
    74   37   38 am   BACKBONE|DICT|INTERRES
    75   37  101 1    
    76   38   39 2    
    77   38   40 1    
    78   40   41 1    
    79   40   42 1    
    80   40  102 1    
    81   41  103 1    
    82   41  104 1    
    83   41  105 1    
    84   42   43 am   BACKBONE|DICT|INTERRES
    85   42  106 1    
    86   43   44 2    
    87   43   45 1    
    88   45   46 1    
    89   45   49 1    
    90   45  107 1    
    91   46   47 1    
    92   46  108 1    
    93   46  109 1    
    94   47   48 1    
    95   48  110 1    
    96   48  111 1    
    97   49   50 am   BACKBONE|DICT|INTERRES
    98   49  112 1    
    99   50   51 2    
   100   50   52 1    
   101   52   53 1    
   102   52   54 1    
   103   52  113 1    
   104   53  114 1    
   105   53  115 1    
   106   53  116 1    
   107   54   55 am   BACKBONE|DICT|INTERRES
   108   54  117 1    
   109   55   56 2    
   110   55   57 1    
   111   57   58 1    
   112   57   59 1    
   113   57  118 1    
   114   58  119 1    
   115   58  120 1    
   116   58  121 1    
   117   59   60 am   BACKBONE|DICT|INTERRES
   118   59  122 1    
   119   60   61 2    
   120   60   62 1    
   121   62   63 1    
   122   62   64 1    
   123   62  123 1    
   124   63  124 1    
   125   63  125 1    
   126   63  126 1    
   127   64   65 am   BACKBONE|DICT|INTERRES
   128   64  127 1    
   129   65   66 2    
@<TRIPOS>SUBSTRUCTURE
     1 UNK         1 GROUP             0       ****    0 ROOT    
