@<TRIPOS>MOLECULE
3R135
127   129    1
SMALL
USER_CHARGES


@<TRIPOS>ATOM
      1 CA        -80.8211   26.2159  -69.5832 C.3       0 UNK        -0.1998 
      2 C         -81.7001   26.6405  -70.7500 C.2       0 UNK         0.4909 
      3 O         -82.9073   26.4001  -70.7297 O.2       0 UNK        -0.5240 
      4 N         -81.1003   27.2642  -71.7714 N.am      1 UNK        -0.4739 
      5 CA        -81.7799   27.7307  -72.9881 C.3       1 UNK         0.0864 
      6 C6        -81.0017   28.8956  -73.6486 C.3       11 UNK        -0.0881 
      7 S7        -81.1160   30.4596  -72.7071 S.3       11 UNK        -0.2682 
      8 C8        -79.7714   30.3549  -71.4739 C.3       11 UNK         0.0289 
      9 C9        -78.4407   29.9001  -72.0584 C.ar      11 UNK        -0.0687 
     10 C10       -77.7893   28.7843  -71.5246 C.ar      11 UNK        -0.0823 
     11 C11       -76.5941   28.3231  -72.0839 C.ar      11 UNK        -0.0830 
     12 C12       -76.0396   29.0050  -73.1712 C.ar      11 UNK        -0.1021 
     13 C13       -76.6607   30.1422  -73.6919 C.ar      11 UNK        -0.0753 
     14 C14       -77.8617   30.5854  -73.1313 C.ar      11 UNK        -0.0933 
     15 C15       -76.0459   30.8879  -74.8653 C.3       11 UNK         0.0166 
     16 S16       -75.0655   32.3148  -74.2996 S.3       11 UNK        -0.2615 
     17 C17       -73.3487   31.8479  -74.7342 C.3       11 UNK        -0.0865 
     18 CA        -72.4167   31.6047  -73.5143 C.3       10 UNK         0.0862 
     19 C         -72.1767   32.8718  -72.6415 C.2       10 UNK         0.5551 
     20 N         -72.1465   32.7680  -71.3176 N.am      10 UNK        -0.7319 
     21 O         -71.9820   33.9629  -73.1719 O.2       10 UNK        -0.5018 
     22 N         -72.8208   30.4221  -72.7341 N.am      10 UNK        -0.4509 
     23 C         -72.3883   29.1607  -72.8537 C.2       10 UNK         0.4899 
     24 O         -72.7823   28.2718  -72.0984 O.2       10 UNK        -0.4839 
     25 CA        -71.3640   28.7927  -73.9397 C.3       9 UNK         0.0222 
     26 CB        -69.9229   28.9925  -73.4299 C.3       9 UNK        -0.1966 
     27 N         -71.5707   27.3947  -74.3061 N.am      9 UNK        -0.4218 
     28 C         -71.1836   26.8195  -75.4494 C.2       9 UNK         0.5020 
     29 O         -70.5731   27.4169  -76.3377 O.2       9 UNK        -0.5274 
     30 CA        -71.5210   25.3315  -75.6443 C.3       8 UNK         0.0270 
     31 CB        -71.8442   24.5767  -74.3372 C.3       8 UNK        -0.1976 
     32 N         -72.6510   25.2205  -76.5637 N.am      8 UNK        -0.4313 
     33 C         -72.5491   25.0493  -77.8893 C.2       8 UNK         0.5041 
     34 O         -71.4778   24.8812  -78.4750 O.2       8 UNK        -0.5577 
     35 CA        -73.8476   25.0379  -78.7209 C.3       7 UNK         0.0284 
     36 CB        -74.1848   23.6026  -79.1581 C.3       7 UNK        -0.1958 
     37 N         -75.0084   25.6110  -78.0357 N.am      7 UNK        -0.4454 
     38 C         -75.1754   26.9096  -77.7508 C.2       7 UNK         0.5089 
     39 O         -74.3925   27.7946  -78.0955 O.2       7 UNK        -0.5125 
     40 CA        -76.4053   27.2777  -76.9005 C.3       6 UNK         0.0408 
     41 CB        -77.6305   27.5314  -77.7910 C.3       6 UNK        -0.1791 
     42 N         -76.7418   26.2762  -75.8846 N.am      6 UNK        -0.4762 
     43 C         -75.9274   25.8689  -74.8990 C.2       6 UNK         0.5007 
     44 O         -74.7744   26.2721  -74.7507 O.2       6 UNK        -0.5032 
     45 CA        -76.4869   24.7865  -73.9600 C.3       5 UNK         0.0783 
     46 C46       -77.5673   25.3614  -73.0005 C.3       11 UNK        -0.0857 
     47 S47       -76.9575   25.6459  -71.3077 S.3       11 UNK        -0.2512 
     48 C48       -75.8812   27.1067  -71.5038 C.3       11 UNK         0.0225 
     49 N         -76.9958   23.6716  -74.7596 N.am      5 UNK        -0.4615 
     50 C         -76.2285   22.7687  -75.3859 C.2       4 UNK         0.5053 
     51 O         -75.0047   22.7149  -75.2712 O.2       4 UNK        -0.5105 
     52 CA        -76.9412   21.7633  -76.3099 C.3       4 UNK         0.0263 
     53 CB        -77.2227   20.4526  -75.5582 C.3       4 UNK        -0.1981 
     54 N         -78.1946   22.2771  -76.8705 N.am      4 UNK        -0.4224 
     55 C         -78.2793   23.2878  -77.7480 C.2       3 UNK         0.4895 
     56 O         -77.3031   23.8631  -78.2254 O.2       3 UNK        -0.5091 
     57 CA        -79.6936   23.7837  -78.0972 C.3       3 UNK         0.0250 
     58 CB        -80.2920   22.9512  -79.2420 C.3       3 UNK        -0.1996 
     59 N         -80.6100   23.7815  -76.9496 N.am      3 UNK        -0.4254 
     60 C         -80.4144   24.4809  -75.8231 C.2       2 UNK         0.5004 
     61 O         -79.4306   25.2003  -75.6285 O.2       2 UNK        -0.5226 
     62 CA        -81.4425   24.2786  -74.7000 C.3       2 UNK         0.0269 
     63 CB        -81.1289   22.9934  -73.9149 C.3       2 UNK        -0.1926 
     64 N         -81.4296   25.4105  -73.7731 N.am      2 UNK        -0.4687 
     65 C         -82.0189   26.5914  -74.0062 C.2       1 UNK         0.5165 
     66 O         -82.7319   26.8043  -74.9888 O.2       1 UNK        -0.5079 
     67 H67       -79.7658   26.4110  -69.7729 H         1 UNK         0.0900 
     68 H68       -81.1100   26.7544  -68.6810 H         1 UNK         0.0900 
     69 H69       -80.9370   25.1489  -69.3951 H         1 UNK         0.0900 
     70 H70       -80.1065   27.4362  -71.7389 H         1 UNK         0.2959 
     71 H71       -82.7712   28.0988  -72.7133 H         1 UNK         0.1079 
     72 H72       -79.9616   28.6205  -73.8290 H         1 UNK         0.0837 
     73 H73       -81.4135   29.1173  -74.6354 H         1 UNK         0.0837 
     74 H74       -80.0902   29.6911  -70.6692 H         1 UNK         0.0685 
     75 H75       -79.6379   31.3374  -71.0195 H         1 UNK         0.0685 
     76 H76       -78.2124   28.2654  -70.6758 H         1 UNK         0.1434 
     77 H77       -75.1172   28.6552  -73.6120 H         1 UNK         0.1329 
     78 H78       -78.3541   31.4581  -73.5381 H         1 UNK         0.1335 
     79 H79       -76.8379   31.2469  -75.5243 H         1 UNK         0.0680 
     80 H80       -75.4387   30.2137  -75.4688 H         1 UNK         0.0680 
     81 H81       -73.3493   30.9673  -75.3765 H         1 UNK         0.1032 
     82 H82       -72.9388   32.6453  -75.3568 H         1 UNK         0.1032 
     83 H83       -71.4224   31.4253  -73.9204 H         1 UNK         0.0461 
     84 H84       -71.9807   33.5949  -70.7655 H         1 UNK         0.3453 
     85 H85       -72.2465   31.8744  -70.8639 H         1 UNK         0.3453 
     86 H86       -73.5173   30.6168  -72.0297 H         1 UNK         0.2984 
     87 H87       -71.5377   29.4000  -74.8287 H         1 UNK         0.0554 
     88 H88       -69.7512   30.0177  -73.1017 H         1 UNK         0.0847 
     89 H89       -69.1916   28.7783  -74.2093 H         1 UNK         0.0847 
     90 H90       -69.7059   28.3420  -72.5816 H         1 UNK         0.0847 
     91 H91       -72.1235   26.8682  -73.6399 H         1 UNK         0.3141 
     92 H92       -70.6377   24.8593  -76.0793 H         1 UNK         0.0743 
     93 H93       -71.0206   24.6537  -73.6260 H         1 UNK         0.0784 
     94 H94       -72.7432   24.9471  -73.8455 H         1 UNK         0.0784 
     95 H95       -71.9992   23.5153  -74.5327 H         1 UNK         0.0784 
     96 H96       -73.5631   25.4157  -76.1642 H         1 UNK         0.3213 
     97 H97       -73.6608   25.6330  -79.6173 H         1 UNK         0.0855 
     98 H98       -74.4086   22.9652  -78.3017 H         1 UNK         0.0814 
     99 H99       -73.3505   23.1487  -79.6947 H         1 UNK         0.0814 
    100 H100      -75.0463   23.5826  -79.8258 H         1 UNK         0.0814 
    101 H101      -75.7591   24.9679  -77.7974 H         1 UNK         0.3105 
    102 H102      -76.1738   28.2026  -76.3718 H         1 UNK         0.0547 
    103 H103      -78.4909   27.8496  -77.2018 H         1 UNK         0.0837 
    104 H104      -77.9159   26.6375  -78.3459 H         1 UNK         0.0837 
    105 H105      -77.4267   28.3170  -78.5197 H         1 UNK         0.0837 
    106 H106      -77.6832   25.8900  -75.9169 H         1 UNK         0.3020 
    107 H107      -75.6500   24.4061  -73.3690 H         1 UNK         0.1245 
    108 H108      -78.3902   24.6535  -72.8973 H         1 UNK         0.0781 
    109 H109      -78.0337   26.2729  -73.3811 H         1 UNK         0.0781 
    110 H110      -75.0258   26.8270  -72.1189 H         1 UNK         0.0836 
    111 H111      -75.4733   27.3756  -70.5286 H         1 UNK         0.0836 
    112 H112      -77.9835   23.6971  -74.9706 H         1 UNK         0.3022 
    113 H113      -76.2658   21.5450  -77.1399 H         1 UNK         0.0747 
    114 H114      -77.6551   19.7008  -76.2187 H         1 UNK         0.0793 
    115 H115      -76.3021   20.0317  -75.1509 H         1 UNK         0.0793 
    116 H116      -77.9088   20.6034  -74.7237 H         1 UNK         0.0793 
    117 H117      -79.0505   21.8579  -76.5376 H         1 UNK         0.3047 
    118 H118      -79.6012   24.8162  -78.4401 H         1 UNK         0.0822 
    119 H119      -81.2524   23.3534  -79.5652 H         1 UNK         0.0807 
    120 H120      -80.4432   21.9106  -78.9523 H         1 UNK         0.0807 
    121 H121      -79.6331   22.9549  -80.1117 H         1 UNK         0.0807 
    122 H122      -81.4353   23.2043  -77.0310 H         1 UNK         0.2946 
    123 H123      -82.4372   24.1926  -75.1440 H         1 UNK         0.1144 
    124 H124      -80.1331   23.0175  -73.4714 H         1 UNK         0.0793 
    125 H125      -81.1768   22.1153  -74.5602 H         1 UNK         0.0793 
    126 H126      -81.8481   22.8375  -73.1104 H         1 UNK         0.0793 
    127 H127      -80.8473   25.3264  -72.9541 H         1 UNK         0.2896 
@<TRIPOS>BOND
     1    1    2 1    
     2    1   67 1    
     3    1   68 1    
     4    1   69 1    
     5    2    3 2    
     6    2    4 am   BACKBONE|DICT|INTERRES
     7    4    5 1    
     8    4   70 1    
     9    5    6 1    
    10    5   65 1    
    11    5   71 1    
    12    6    7 1    
    13    6   72 1    
    14    6   73 1    
    15    7    8 1    
    16    8    9 1    
    17    8   74 1    
    18    8   75 1    
    19    9   10 ar   
    20    9   14 ar   
    21   10   11 ar   
    22   10   76 1    
    23   11   12 ar   
    24   11   48 1    
    25   12   13 ar   
    26   12   77 1    
    27   13   14 ar   
    28   13   15 1    
    29   14   78 1    
    30   15   16 1    
    31   15   79 1    
    32   15   80 1    
    33   16   17 1    
    34   17   18 1    
    35   17   81 1    
    36   17   82 1    
    37   18   19 1    
    38   18   22 1    
    39   18   83 1    
    40   19   20 am   BACKBONE|DICT|INTERRES
    41   19   21 2    
    42   20   84 1    
    43   20   85 1    
    44   22   23 am   BACKBONE|DICT|INTERRES
    45   22   86 1    
    46   23   24 2    
    47   23   25 1    
    48   25   26 1    
    49   25   27 1    
    50   25   87 1    
    51   26   88 1    
    52   26   89 1    
    53   26   90 1    
    54   27   28 am   BACKBONE|DICT|INTERRES
    55   27   91 1    
    56   28   29 2    
    57   28   30 1    
    58   30   31 1    
    59   30   32 1    
    60   30   92 1    
    61   31   93 1    
    62   31   94 1    
    63   31   95 1    
    64   32   33 am   BACKBONE|DICT|INTERRES
    65   32   96 1    
    66   33   34 2    
    67   33   35 1    
    68   35   36 1    
    69   35   37 1    
    70   35   97 1    
    71   36   98 1    
    72   36   99 1    
    73   36  100 1    
    74   37   38 am   BACKBONE|DICT|INTERRES
    75   37  101 1    
    76   38   39 2    
    77   38   40 1    
    78   40   41 1    
    79   40   42 1    
    80   40  102 1    
    81   41  103 1    
    82   41  104 1    
    83   41  105 1    
    84   42   43 am   BACKBONE|DICT|INTERRES
    85   42  106 1    
    86   43   44 2    
    87   43   45 1    
    88   45   46 1    
    89   45   49 1    
    90   45  107 1    
    91   46   47 1    
    92   46  108 1    
    93   46  109 1    
    94   47   48 1    
    95   48  110 1    
    96   48  111 1    
    97   49   50 am   BACKBONE|DICT|INTERRES
    98   49  112 1    
    99   50   51 2    
   100   50   52 1    
   101   52   53 1    
   102   52   54 1    
   103   52  113 1    
   104   53  114 1    
   105   53  115 1    
   106   53  116 1    
   107   54   55 am   BACKBONE|DICT|INTERRES
   108   54  117 1    
   109   55   56 2    
   110   55   57 1    
   111   57   58 1    
   112   57   59 1    
   113   57  118 1    
   114   58  119 1    
   115   58  120 1    
   116   58  121 1    
   117   59   60 am   BACKBONE|DICT|INTERRES
   118   59  122 1    
   119   60   61 2    
   120   60   62 1    
   121   62   63 1    
   122   62   64 1    
   123   62  123 1    
   124   63  124 1    
   125   63  125 1    
   126   63  126 1    
   127   64   65 am   BACKBONE|DICT|INTERRES
   128   64  127 1    
   129   65   66 2    
@<TRIPOS>SUBSTRUCTURE
     1 UNK         1 GROUP             0       ****    0 ROOT    
