@<TRIPOS>MOLECULE
3R135
127   129    1
SMALL
USER_CHARGES


@<TRIPOS>ATOM
      1 CA        -76.9655   20.8099  -75.7859 C.3       0 UNK        -0.1998 
      2 C         -77.4114   21.2453  -74.3980 C.2       0 UNK         0.4909 
      3 O         -77.4387   20.4282  -73.4768 O.2       0 UNK        -0.5240 
      4 N         -77.7529   22.5280  -74.2471 N.am      1 UNK        -0.4739 
      5 CA        -78.2717   23.1337  -73.0208 C.3       1 UNK         0.0864 
      6 C6        -77.6964   24.5645  -72.8625 C.3       11 UNK        -0.0881 
      7 S7        -77.5641   25.0981  -71.1224 S.3       11 UNK        -0.2682 
      8 C8        -78.5027   26.6651  -71.1422 C.3       11 UNK         0.0289 
      9 C9        -77.9956   27.6807  -72.1638 C.ar      11 UNK        -0.0687 
     10 C10       -78.9137   28.4382  -72.8956 C.ar      11 UNK        -0.0823 
     11 C11       -78.4776   29.3769  -73.8354 C.ar      11 UNK        -0.0830 
     12 C12       -77.1054   29.5606  -74.0433 C.ar      11 UNK        -0.1021 
     13 C13       -76.1761   28.8008  -73.3252 C.ar      11 UNK        -0.0753 
     14 C14       -76.6276   27.8739  -72.3820 C.ar      11 UNK        -0.0933 
     15 C15       -74.6827   28.9425  -73.5753 C.3       11 UNK         0.0166 
     16 S16       -73.8332   29.7254  -72.1696 S.3       11 UNK        -0.2615 
     17 C17       -73.8515   31.4953  -72.6327 C.3       11 UNK        -0.0865 
     18 CA        -72.4265   32.1008  -72.7644 C.3       10 UNK         0.0862 
     19 C         -71.7571   32.2997  -71.3698 C.2       10 UNK         0.5551 
     20 N         -70.6782   31.5993  -71.0410 N.am      10 UNK        -0.7319 
     21 O         -72.2248   33.1143  -70.5776 O.2       10 UNK        -0.5018 
     22 N         -71.6262   31.3735  -73.7647 N.am      10 UNK        -0.4509 
     23 C         -70.4591   31.7660  -74.2880 C.2       10 UNK         0.4899 
     24 O         -69.9244   32.8420  -74.0163 O.2       10 UNK        -0.4839 
     25 CA        -69.7719   30.7941  -75.2763 C.3       9 UNK         0.0222 
     26 CB        -68.2954   31.1577  -75.5253 C.3       9 UNK        -0.1966 
     27 N         -69.8497   29.3815  -74.8742 N.am      9 UNK        -0.4218 
     28 C         -70.9303   28.6021  -74.9984 C.2       9 UNK         0.5020 
     29 O         -72.0152   29.0102  -75.4259 O.2       9 UNK        -0.5274 
     30 CA        -70.8008   27.1424  -74.5417 C.3       8 UNK         0.0270 
     31 CB        -70.7485   27.0338  -73.0074 C.3       8 UNK        -0.1976 
     32 N         -71.9791   26.4495  -75.0409 N.am      8 UNK        -0.4313 
     33 C         -72.0862   25.1776  -75.4347 C.2       8 UNK         0.5041 
     34 O         -71.1900   24.3419  -75.3118 O.2       8 UNK        -0.5577 
     35 CA        -73.4257   24.7739  -76.0883 C.3       7 UNK         0.0284 
     36 CB        -74.2796   23.9557  -75.1057 C.3       7 UNK        -0.1958 
     37 N         -74.2067   25.9301  -76.5475 N.am      7 UNK        -0.4454 
     38 C         -73.8947   26.6974  -77.6029 C.2       7 UNK         0.5089 
     39 O         -72.9780   26.4386  -78.3838 O.2       7 UNK        -0.5125 
     40 CA        -74.7027   27.9996  -77.7696 C.3       6 UNK         0.0408 
     41 CB        -74.7380   28.5078  -79.2271 C.3       6 UNK        -0.1791 
     42 N         -76.0461   27.9404  -77.1763 N.am      6 UNK        -0.4762 
     43 C         -77.0935   27.2219  -77.6086 C.2       6 UNK         0.5007 
     44 O         -77.0727   26.5068  -78.6134 O.2       6 UNK        -0.5032 
     45 CA        -78.3884   27.3796  -76.7821 C.3       5 UNK         0.0783 
     46 C46       -79.0081   28.7802  -77.0239 C.3       11 UNK        -0.0857 
     47 S47       -80.3610   29.1507  -75.8606 S.3       11 UNK        -0.2512 
     48 C48       -79.5005   30.1806  -74.6263 C.3       11 UNK         0.0225 
     49 N         -79.3587   26.3150  -77.0493 N.am      5 UNK        -0.4615 
     50 C         -79.1870   25.0136  -76.7953 C.2       4 UNK         0.5053 
     51 O         -78.1978   24.5410  -76.2304 O.2       4 UNK        -0.5105 
     52 CA        -80.3486   24.1030  -77.2187 C.3       4 UNK         0.0263 
     53 CB        -79.9319   22.6278  -77.3619 C.3       4 UNK        -0.1981 
     54 N         -81.4430   24.2161  -76.2538 N.am      4 UNK        -0.4224 
     55 C         -82.4072   25.1478  -76.3074 C.2       3 UNK         0.4895 
     56 O         -82.4766   25.9940  -77.2003 O.2       3 UNK        -0.5091 
     57 CA        -83.4886   25.1428  -75.2093 C.3       3 UNK         0.0250 
     58 CB        -84.7834   24.5044  -75.7388 C.3       3 UNK        -0.1996 
     59 N         -83.0816   24.4474  -73.9869 N.am      3 UNK        -0.4254 
     60 C         -82.2728   24.9635  -73.0525 C.2       2 UNK         0.5004 
     61 O         -81.8253   26.1102  -73.0908 O.2       2 UNK        -0.5226 
     62 CA        -81.8510   24.0401  -71.8913 C.3       2 UNK         0.0269 
     63 CB        -82.7076   22.7610  -71.7429 C.3       2 UNK        -0.1926 
     64 N         -80.4249   23.7087  -71.9964 N.am      2 UNK        -0.4687 
     65 C         -79.8158   23.1336  -73.0434 C.2       1 UNK         0.5165 
     66 O         -80.4300   22.6600  -74.0040 O.2       1 UNK        -0.5079 
     67 H67       -76.9395   21.6467  -76.4844 H         1 UNK         0.0900 
     68 H68       -77.6488   20.0588  -76.1811 H         1 UNK         0.0900 
     69 H69       -75.9671   20.3758  -75.7413 H         1 UNK         0.0900 
     70 H70       -77.7859   23.1422  -75.0587 H         1 UNK         0.2959 
     71 H71       -77.9579   22.5279  -72.1677 H         1 UNK         0.1079 
     72 H72       -76.6825   24.6063  -73.2609 H         1 UNK         0.0837 
     73 H73       -78.2640   25.2851  -73.4555 H         1 UNK         0.0837 
     74 H74       -79.5536   26.4364  -71.3256 H         1 UNK         0.0685 
     75 H75       -78.4529   27.1151  -70.1501 H         1 UNK         0.0685 
     76 H76       -79.9752   28.2915  -72.7435 H         1 UNK         0.1434 
     77 H77       -76.7627   30.2879  -74.7667 H         1 UNK         0.1329 
     78 H78       -75.9057   27.2961  -71.8213 H         1 UNK         0.1335 
     79 H79       -74.2566   27.9492  -73.7213 H         1 UNK         0.0680 
     80 H80       -74.4861   29.4939  -74.4955 H         1 UNK         0.0680 
     81 H81       -74.4389   32.0421  -71.8924 H         1 UNK         0.1032 
     82 H82       -74.3891   31.6253  -73.5727 H         1 UNK         0.1032 
     83 H83       -72.5519   33.1097  -73.1618 H         1 UNK         0.0461 
     84 H84       -70.2927   30.9306  -71.6870 H         1 UNK         0.3453 
     85 H85       -70.2516   31.7393  -70.1389 H         1 UNK         0.3453 
     86 H86       -72.0009   30.4834  -74.0739 H         1 UNK         0.2984 
     87 H87       -70.2967   30.9036  -76.2277 H         1 UNK         0.0554 
     88 H88       -67.8400   30.4935  -76.2601 H         1 UNK         0.0847 
     89 H89       -67.7060   31.1017  -74.6093 H         1 UNK         0.0847 
     90 H90       -68.1997   32.1730  -75.9129 H         1 UNK         0.0847 
     91 H91       -69.0102   28.9821  -74.4787 H         1 UNK         0.3141 
     92 H92       -69.9010   26.7110  -74.9852 H         1 UNK         0.0743 
     93 H93       -69.8680   27.5350  -72.6042 H         1 UNK         0.0784 
     94 H94       -70.7016   25.9927  -72.6874 H         1 UNK         0.0784 
     95 H95       -71.6252   27.4857  -72.5412 H         1 UNK         0.0784 
     96 H96       -72.7324   27.0869  -75.2664 H         1 UNK         0.3213 
     97 H97       -73.1972   24.1479  -76.9536 H         1 UNK         0.0855 
     98 H98       -73.7638   23.0409  -74.8106 H         1 UNK         0.0814 
     99 H99       -75.2301   23.6616  -75.5517 H         1 UNK         0.0814 
    100 H100      -74.4912   24.5162  -74.1947 H         1 UNK         0.0814 
    101 H101      -75.0013   26.1962  -75.9852 H         1 UNK         0.3105 
    102 H102      -74.1636   28.7495  -77.1890 H         1 UNK         0.0547 
    103 H103      -75.1687   27.7720  -79.9064 H         1 UNK         0.0837 
    104 H104      -73.7318   28.7255  -79.5872 H         1 UNK         0.0837 
    105 H105      -75.3166   29.4272  -79.3146 H         1 UNK         0.0837 
    106 H106      -76.1725   28.5110  -76.3522 H         1 UNK         0.3020 
    107 H107      -78.1082   27.2891  -75.7303 H         1 UNK         0.1245 
    108 H108      -79.4019   28.8510  -78.0397 H         1 UNK         0.0781 
    109 H109      -78.2603   29.5712  -76.9430 H         1 UNK         0.0781 
    110 H110      -80.2389   30.5960  -73.9389 H         1 UNK         0.0836 
    111 H111      -79.0335   31.0340  -75.1205 H         1 UNK         0.0836 
    112 H112      -80.2355   26.6066  -77.4610 H         1 UNK         0.3022 
    113 H113      -80.6893   24.4341  -78.2024 H         1 UNK         0.0747 
    114 H114      -80.7532   22.0226  -77.7455 H         1 UNK         0.0793 
    115 H115      -79.0995   22.5247  -78.0591 H         1 UNK         0.0793 
    116 H116      -79.6177   22.1946  -76.4141 H         1 UNK         0.0793 
    117 H117      -81.3853   23.6021  -75.4459 H         1 UNK         0.3047 
    118 H118      -83.7015   26.1852  -74.9610 H         1 UNK         0.0822 
    119 H119      -85.5839   24.5587  -75.0007 H         1 UNK         0.0807 
    120 H120      -84.6389   23.4559  -76.0029 H         1 UNK         0.0807 
    121 H121      -85.1353   25.0200  -76.6336 H         1 UNK         0.0807 
    122 H122      -83.3782   23.4872  -73.8864 H         1 UNK         0.2946 
    123 H123      -81.9742   24.6273  -70.9795 H         1 UNK         0.1144 
    124 H124      -83.7645   23.0068  -71.6306 H         1 UNK         0.0793 
    125 H125      -82.4165   22.2021  -70.8535 H         1 UNK         0.0793 
    126 H126      -82.6116   22.0873  -72.5947 H         1 UNK         0.0793 
    127 H127      -79.8327   24.0931  -71.2716 H         1 UNK         0.2896 
@<TRIPOS>BOND
     1    1    2 1    
     2    1   67 1    
     3    1   68 1    
     4    1   69 1    
     5    2    3 2    
     6    2    4 am   BACKBONE|DICT|INTERRES
     7    4    5 1    
     8    4   70 1    
     9    5    6 1    
    10    5   65 1    
    11    5   71 1    
    12    6    7 1    
    13    6   72 1    
    14    6   73 1    
    15    7    8 1    
    16    8    9 1    
    17    8   74 1    
    18    8   75 1    
    19    9   10 ar   
    20    9   14 ar   
    21   10   11 ar   
    22   10   76 1    
    23   11   12 ar   
    24   11   48 1    
    25   12   13 ar   
    26   12   77 1    
    27   13   14 ar   
    28   13   15 1    
    29   14   78 1    
    30   15   16 1    
    31   15   79 1    
    32   15   80 1    
    33   16   17 1    
    34   17   18 1    
    35   17   81 1    
    36   17   82 1    
    37   18   19 1    
    38   18   22 1    
    39   18   83 1    
    40   19   20 am   BACKBONE|DICT|INTERRES
    41   19   21 2    
    42   20   84 1    
    43   20   85 1    
    44   22   23 am   BACKBONE|DICT|INTERRES
    45   22   86 1    
    46   23   24 2    
    47   23   25 1    
    48   25   26 1    
    49   25   27 1    
    50   25   87 1    
    51   26   88 1    
    52   26   89 1    
    53   26   90 1    
    54   27   28 am   BACKBONE|DICT|INTERRES
    55   27   91 1    
    56   28   29 2    
    57   28   30 1    
    58   30   31 1    
    59   30   32 1    
    60   30   92 1    
    61   31   93 1    
    62   31   94 1    
    63   31   95 1    
    64   32   33 am   BACKBONE|DICT|INTERRES
    65   32   96 1    
    66   33   34 2    
    67   33   35 1    
    68   35   36 1    
    69   35   37 1    
    70   35   97 1    
    71   36   98 1    
    72   36   99 1    
    73   36  100 1    
    74   37   38 am   BACKBONE|DICT|INTERRES
    75   37  101 1    
    76   38   39 2    
    77   38   40 1    
    78   40   41 1    
    79   40   42 1    
    80   40  102 1    
    81   41  103 1    
    82   41  104 1    
    83   41  105 1    
    84   42   43 am   BACKBONE|DICT|INTERRES
    85   42  106 1    
    86   43   44 2    
    87   43   45 1    
    88   45   46 1    
    89   45   49 1    
    90   45  107 1    
    91   46   47 1    
    92   46  108 1    
    93   46  109 1    
    94   47   48 1    
    95   48  110 1    
    96   48  111 1    
    97   49   50 am   BACKBONE|DICT|INTERRES
    98   49  112 1    
    99   50   51 2    
   100   50   52 1    
   101   52   53 1    
   102   52   54 1    
   103   52  113 1    
   104   53  114 1    
   105   53  115 1    
   106   53  116 1    
   107   54   55 am   BACKBONE|DICT|INTERRES
   108   54  117 1    
   109   55   56 2    
   110   55   57 1    
   111   57   58 1    
   112   57   59 1    
   113   57  118 1    
   114   58  119 1    
   115   58  120 1    
   116   58  121 1    
   117   59   60 am   BACKBONE|DICT|INTERRES
   118   59  122 1    
   119   60   61 2    
   120   60   62 1    
   121   62   63 1    
   122   62   64 1    
   123   62  123 1    
   124   63  124 1    
   125   63  125 1    
   126   63  126 1    
   127   64   65 am   BACKBONE|DICT|INTERRES
   128   64  127 1    
   129   65   66 2    
@<TRIPOS>SUBSTRUCTURE
     1 UNK         1 GROUP             0       ****    0 ROOT    
