@<TRIPOS>MOLECULE
3R135
127   129    1
SMALL
USER_CHARGES


@<TRIPOS>ATOM
      1 CA        -83.3651   26.5721  -70.4437 C.3       0 UNK        -0.1998 
      2 C         -83.3961   27.1042  -71.8685 C.2       0 UNK         0.4909 
      3 O         -84.4662   27.1784  -72.4730 O.2       0 UNK        -0.5240 
      4 N         -82.2280   27.4732  -72.4092 N.am      1 UNK        -0.4739 
      5 CA        -82.0654   27.9971  -73.7725 C.3       1 UNK         0.0864 
      6 C6        -80.7339   28.7727  -73.9256 C.3       11 UNK        -0.0881 
      7 S7        -80.7391   30.3561  -73.0143 S.3       11 UNK        -0.2682 
      8 C8        -79.9052   29.9503  -71.4423 C.3       11 UNK         0.0289 
      9 C9        -78.5171   29.3543  -71.6376 C.ar      11 UNK        -0.0687 
     10 C10       -78.2186   28.0918  -71.1161 C.ar      11 UNK        -0.0823 
     11 C11       -76.9575   27.5192  -71.3137 C.ar      11 UNK        -0.0830 
     12 C12       -75.9882   28.2337  -72.0235 C.ar      11 UNK        -0.1021 
     13 C13       -76.2632   29.5068  -72.5285 C.ar      11 UNK        -0.0753 
     14 C14       -77.5305   30.0628  -72.3311 C.ar      11 UNK        -0.0933 
     15 C15       -75.1907   30.2809  -73.2807 C.3       11 UNK         0.0166 
     16 S16       -73.8569   30.8043  -72.1557 S.3       11 UNK        -0.2615 
     17 C17       -73.1297   32.2283  -73.0428 C.3       11 UNK        -0.0865 
     18 CA        -71.7735   31.9348  -73.7360 C.3       10 UNK         0.0862 
     19 C         -70.6155   31.6642  -72.7277 C.2       10 UNK         0.5551 
     20 N         -69.8786   30.5631  -72.8258 N.am      10 UNK        -0.7319 
     21 O         -70.3683   32.4845  -71.8469 O.2       10 UNK        -0.5018 
     22 N         -71.9198   30.9266  -74.7944 N.am      10 UNK        -0.4509 
     23 C         -71.1550   30.8519  -75.8898 C.2       10 UNK         0.4899 
     24 O         -70.2902   31.6808  -76.1788 O.2       10 UNK        -0.4839 
     25 CA        -71.4035   29.6420  -76.8114 C.3       9 UNK         0.0222 
     26 CB        -70.2329   29.3812  -77.7828 C.3       9 UNK        -0.1966 
     27 N         -71.7518   28.4106  -76.0899 N.am      9 UNK        -0.4218 
     28 C         -71.0186   27.7768  -75.1575 C.2       9 UNK         0.5020 
     29 O         -69.9629   28.2202  -74.7031 O.2       9 UNK        -0.5274 
     30 CA        -71.5469   26.4316  -74.6162 C.3       8 UNK         0.0270 
     31 CB        -72.1241   26.6269  -73.2050 C.3       8 UNK        -0.1976 
     32 N         -72.5602   25.8028  -75.4706 N.am      8 UNK        -0.4313 
     33 C         -72.3390   25.3465  -76.7147 C.2       8 UNK         0.5041 
     34 O         -71.2156   25.2609  -77.2123 O.2       8 UNK        -0.5577 
     35 CA        -73.5602   24.9586  -77.5765 C.3       7 UNK         0.0284 
     36 CB        -73.6778   23.4287  -77.6738 C.3       7 UNK        -0.1958 
     37 N         -74.8432   25.5072  -77.1223 N.am      7 UNK        -0.4454 
     38 C         -75.1282   26.7983  -76.8960 C.2       7 UNK         0.5089 
     39 O         -74.3555   27.7245  -77.1441 O.2       7 UNK        -0.5125 
     40 CA        -76.4627   27.1040  -76.1925 C.3       6 UNK         0.0408 
     41 CB        -77.5426   27.4742  -77.2187 C.3       6 UNK        -0.1791 
     42 N         -76.9575   26.0169  -75.3403 N.am      6 UNK        -0.4762 
     43 C         -76.3036   25.4546  -74.3106 C.2       6 UNK         0.5007 
     44 O         -75.1530   25.7473  -73.9840 O.2       6 UNK        -0.5032 
     45 CA        -77.0534   24.3370  -73.5646 C.3       5 UNK         0.0783 
     46 C46       -78.2373   24.8974  -72.7261 C.3       11 UNK        -0.0857 
     47 S47       -77.9217   24.8917  -70.9316 S.3       11 UNK        -0.2512 
     48 C48       -76.6086   26.1474  -70.7429 C.3       11 UNK         0.0225 
     49 N         -77.4980   23.3374  -74.5347 N.am      5 UNK        -0.4615 
     50 C         -76.7338   22.3513  -75.0216 C.2       4 UNK         0.5053 
     51 O         -75.5957   22.1083  -74.6218 O.2       4 UNK        -0.5105 
     52 CA        -77.3313   21.4885  -76.1494 C.3       4 UNK         0.0263 
     53 CB        -77.8820   20.1709  -75.5807 C.3       4 UNK        -0.1981 
     54 N         -78.3896   22.1641  -76.9064 N.am      4 UNK        -0.4224 
     55 C         -78.1976   23.2177  -77.7130 C.2       3 UNK         0.4895 
     56 O         -77.0956   23.7147  -77.9421 O.2       3 UNK        -0.5091 
     57 CA        -79.4590   23.8613  -78.3157 C.3       3 UNK         0.0250 
     58 CB        -79.8727   23.1332  -79.6044 C.3       3 UNK        -0.1996 
     59 N         -80.6001   23.9173  -77.3910 N.am      3 UNK        -0.4254 
     60 C         -80.5875   24.5285  -76.1980 C.2       2 UNK         0.5004 
     61 O         -79.5865   25.0620  -75.7137 O.2       2 UNK        -0.5226 
     62 CA        -81.8876   24.4860  -75.3795 C.3       2 UNK         0.0269 
     63 CB        -81.9587   23.1864  -74.5609 C.3       2 UNK        -0.1926 
     64 N         -81.9703   25.6270  -74.4648 N.am      2 UNK        -0.4687 
     65 C         -82.1711   26.8959  -74.8503 C.2       1 UNK         0.5165 
     66 O         -82.4280   27.2169  -76.0122 O.2       1 UNK        -0.5079 
     67 H67       -83.7576   25.5561  -70.4141 H         1 UNK         0.0900 
     68 H68       -82.3549   26.5573  -70.0346 H         1 UNK         0.0900 
     69 H69       -83.9830   27.1952  -69.7976 H         1 UNK         0.0900 
     70 H70       -81.3815   27.3953  -71.8659 H         1 UNK         0.2959 
     71 H71       -82.8862   28.6910  -73.9695 H         1 UNK         0.1079 
     72 H72       -79.8844   28.1548  -73.6307 H         1 UNK         0.0837 
     73 H73       -80.5582   29.0269  -74.9732 H         1 UNK         0.0837 
     74 H74       -80.5434   29.2780  -70.8677 H         1 UNK         0.0685 
     75 H75       -79.8150   30.8620  -70.8503 H         1 UNK         0.0685 
     76 H76       -78.9694   27.5489  -70.5591 H         1 UNK         0.1434 
     77 H77       -75.0075   27.8052  -72.1740 H         1 UNK         0.1329 
     78 H78       -77.7566   31.0452  -72.7227 H         1 UNK         0.1335 
     79 H79       -75.6315   31.1524  -73.7667 H         1 UNK         0.0680 
     80 H80       -74.7758   29.6576  -74.0743 H         1 UNK         0.0680 
     81 H81       -73.0130   33.0439  -72.3266 H         1 UNK         0.1032 
     82 H82       -73.8396   32.6046  -73.7804 H         1 UNK         0.1032 
     83 H83       -71.4890   32.8675  -74.2271 H         1 UNK         0.0461 
     84 H84       -70.0422   29.8803  -73.5573 H         1 UNK         0.3453 
     85 H85       -69.1316   30.4152  -72.1665 H         1 UNK         0.3453 
     86 H86       -72.5816   30.1875  -74.6130 H         1 UNK         0.2984 
     87 H87       -72.2784   29.8953  -77.4117 H         1 UNK         0.0554 
     88 H88       -70.0528   30.2456  -78.4232 H         1 UNK         0.0847 
     89 H89       -70.4415   28.5339  -78.4361 H         1 UNK         0.0847 
     90 H90       -69.3050   29.1720  -77.2493 H         1 UNK         0.0847 
     91 H91       -72.6329   27.9891  -76.3769 H         1 UNK         0.3141 
     92 H92       -70.6968   25.7498  -74.5499 H         1 UNK         0.0743 
     93 H93       -71.3701   27.0256  -72.5247 H         1 UNK         0.0784 
     94 H94       -72.9597   27.3271  -73.2094 H         1 UNK         0.0784 
     95 H95       -72.4766   25.6854  -72.7833 H         1 UNK         0.0784 
     96 H96       -73.5114   25.7995  -75.1106 H         1 UNK         0.3213 
     97 H97       -73.3801   25.3542  -78.5779 H         1 UNK         0.0855 
     98 H98       -73.9060   22.9812  -76.7057 H         1 UNK         0.0814 
     99 H99       -72.7459   22.9849  -78.0271 H         1 UNK         0.0814 
    100 H100      -74.4593   23.1329  -78.3738 H         1 UNK         0.0814 
    101 H101      -75.5866   24.8355  -76.9654 H         1 UNK         0.3105 
    102 H102      -76.2983   27.9666  -75.5435 H         1 UNK         0.0547 
    103 H103      -78.4805   27.7424  -76.7316 H         1 UNK         0.0837 
    104 H104      -77.7430   26.6493  -77.9023 H         1 UNK         0.0837 
    105 H105      -77.2322   28.3293  -77.8207 H         1 UNK         0.0837 
    106 H106      -77.9051   25.6930  -75.5325 H         1 UNK         0.3020 
    107 H107      -76.3350   23.8583  -72.8948 H         1 UNK         0.1245 
    108 H108      -79.1270   24.2830  -72.8712 H         1 UNK         0.0781 
    109 H109      -78.5441   25.8981  -73.0370 H         1 UNK         0.0781 
    110 H110      -75.6952   25.7635  -71.2000 H         1 UNK         0.0836 
    111 H111      -76.3896   26.2621  -69.6807 H         1 UNK         0.0836 
    112 H112      -78.3942   23.5181  -74.9685 H         1 UNK         0.3022 
    113 H113      -76.5205   21.2520  -76.8421 H         1 UNK         0.0747 
    114 H114      -78.2367   19.5129  -76.3742 H         1 UNK         0.0793 
    115 H115      -77.1086   19.6284  -75.0348 H         1 UNK         0.0793 
    116 H116      -78.7085   20.3426  -74.8898 H         1 UNK         0.0793 
    117 H117      -79.3315   21.8239  -76.7788 H         1 UNK         0.3047 
    118 H118      -79.2046   24.8899  -78.5772 H         1 UNK         0.0822 
    119 H119      -80.6977   23.6438  -80.1017 H         1 UNK         0.0807 
    120 H120      -80.1818   22.1055  -79.4092 H         1 UNK         0.0807 
    121 H121      -79.0445   23.0952  -80.3138 H         1 UNK         0.0807 
    122 H122      -81.4573   23.4876  -77.7090 H         1 UNK         0.2946 
    123 H123      -82.7377   24.5273  -76.0645 H         1 UNK         0.1144 
    124 H124      -81.1216   23.0963  -73.8676 H         1 UNK         0.0793 
    125 H125      -81.9395   22.3103  -75.2105 H         1 UNK         0.0793 
    126 H126      -82.8803   23.1345  -73.9807 H         1 UNK         0.0793 
    127 H127      -81.7530   25.4539  -73.4952 H         1 UNK         0.2896 
@<TRIPOS>BOND
     1    1    2 1    
     2    1   67 1    
     3    1   68 1    
     4    1   69 1    
     5    2    3 2    
     6    2    4 am   BACKBONE|DICT|INTERRES
     7    4    5 1    
     8    4   70 1    
     9    5    6 1    
    10    5   65 1    
    11    5   71 1    
    12    6    7 1    
    13    6   72 1    
    14    6   73 1    
    15    7    8 1    
    16    8    9 1    
    17    8   74 1    
    18    8   75 1    
    19    9   10 ar   
    20    9   14 ar   
    21   10   11 ar   
    22   10   76 1    
    23   11   12 ar   
    24   11   48 1    
    25   12   13 ar   
    26   12   77 1    
    27   13   14 ar   
    28   13   15 1    
    29   14   78 1    
    30   15   16 1    
    31   15   79 1    
    32   15   80 1    
    33   16   17 1    
    34   17   18 1    
    35   17   81 1    
    36   17   82 1    
    37   18   19 1    
    38   18   22 1    
    39   18   83 1    
    40   19   20 am   BACKBONE|DICT|INTERRES
    41   19   21 2    
    42   20   84 1    
    43   20   85 1    
    44   22   23 am   BACKBONE|DICT|INTERRES
    45   22   86 1    
    46   23   24 2    
    47   23   25 1    
    48   25   26 1    
    49   25   27 1    
    50   25   87 1    
    51   26   88 1    
    52   26   89 1    
    53   26   90 1    
    54   27   28 am   BACKBONE|DICT|INTERRES
    55   27   91 1    
    56   28   29 2    
    57   28   30 1    
    58   30   31 1    
    59   30   32 1    
    60   30   92 1    
    61   31   93 1    
    62   31   94 1    
    63   31   95 1    
    64   32   33 am   BACKBONE|DICT|INTERRES
    65   32   96 1    
    66   33   34 2    
    67   33   35 1    
    68   35   36 1    
    69   35   37 1    
    70   35   97 1    
    71   36   98 1    
    72   36   99 1    
    73   36  100 1    
    74   37   38 am   BACKBONE|DICT|INTERRES
    75   37  101 1    
    76   38   39 2    
    77   38   40 1    
    78   40   41 1    
    79   40   42 1    
    80   40  102 1    
    81   41  103 1    
    82   41  104 1    
    83   41  105 1    
    84   42   43 am   BACKBONE|DICT|INTERRES
    85   42  106 1    
    86   43   44 2    
    87   43   45 1    
    88   45   46 1    
    89   45   49 1    
    90   45  107 1    
    91   46   47 1    
    92   46  108 1    
    93   46  109 1    
    94   47   48 1    
    95   48  110 1    
    96   48  111 1    
    97   49   50 am   BACKBONE|DICT|INTERRES
    98   49  112 1    
    99   50   51 2    
   100   50   52 1    
   101   52   53 1    
   102   52   54 1    
   103   52  113 1    
   104   53  114 1    
   105   53  115 1    
   106   53  116 1    
   107   54   55 am   BACKBONE|DICT|INTERRES
   108   54  117 1    
   109   55   56 2    
   110   55   57 1    
   111   57   58 1    
   112   57   59 1    
   113   57  118 1    
   114   58  119 1    
   115   58  120 1    
   116   58  121 1    
   117   59   60 am   BACKBONE|DICT|INTERRES
   118   59  122 1    
   119   60   61 2    
   120   60   62 1    
   121   62   63 1    
   122   62   64 1    
   123   62  123 1    
   124   63  124 1    
   125   63  125 1    
   126   63  126 1    
   127   64   65 am   BACKBONE|DICT|INTERRES
   128   64  127 1    
   129   65   66 2    
@<TRIPOS>SUBSTRUCTURE
     1 UNK         1 GROUP             0       ****    0 ROOT    
