@<TRIPOS>MOLECULE
3R135
127   129    1
SMALL
USER_CHARGES


@<TRIPOS>ATOM
      1 CA        -84.0084   25.2251  -74.2628 C.3       0 UNK        -0.1998 
      2 C         -83.0632   26.4119  -74.3644 C.2       0 UNK         0.4909 
      3 O         -82.8238   26.9138  -75.4626 O.2       0 UNK        -0.5240 
      4 N         -82.5220   26.8734  -73.2307 N.am      1 UNK        -0.4739 
      5 CA        -81.5648   27.9815  -73.1658 C.3       1 UNK         0.0864 
      6 C6        -81.4306   28.5642  -71.7367 C.3       11 UNK        -0.0881 
      7 S7        -81.0893   27.3338  -70.4291 S.3       11 UNK        -0.2682 
      8 C8        -79.7363   28.1355  -69.5127 C.3       11 UNK         0.0289 
      9 C9        -78.4025   27.9759  -70.2247 C.ar      11 UNK        -0.0687 
     10 C10       -77.6871   26.7835  -70.0961 C.ar      11 UNK        -0.0823 
     11 C11       -76.4566   26.6199  -70.7368 C.ar      11 UNK        -0.0830 
     12 C12       -75.9370   27.6644  -71.5103 C.ar      11 UNK        -0.1021 
     13 C13       -76.6477   28.8607  -71.6502 C.ar      11 UNK        -0.0753 
     14 C14       -77.8767   29.0128  -71.0006 C.ar      11 UNK        -0.0933 
     15 C15       -76.1056   29.9875  -72.5147 C.3       11 UNK         0.0166 
     16 S16       -75.1018   31.1495  -71.5413 S.3       11 UNK        -0.2615 
     17 C17       -75.0420   32.5926  -72.6632 C.3       11 UNK        -0.0865 
     18 CA        -73.6578   32.9289  -73.2923 C.3       10 UNK         0.0862 
     19 C         -72.5706   33.3863  -72.2688 C.2       10 UNK         0.5551 
     20 N         -71.2864   33.1847  -72.5350 N.am      10 UNK        -0.7319 
     21 O         -72.8897   33.9841  -71.2435 O.2       10 UNK        -0.5018 
     22 N         -73.2480   31.9845  -74.3516 N.am      10 UNK        -0.4509 
     23 C         -72.6462   30.7958  -74.2158 C.2       10 UNK         0.4899 
     24 O         -72.3082   30.2936  -73.1414 O.2       10 UNK        -0.4839 
     25 CA        -72.3405   30.0527  -75.5235 C.3       9 UNK         0.0222 
     26 CB        -71.2336   30.7578  -76.3310 C.3       9 UNK        -0.1966 
     27 N         -71.9203   28.6959  -75.1921 N.am      9 UNK        -0.4218 
     28 C         -72.0517   27.6132  -75.9634 C.2       9 UNK         0.5020 
     29 O         -72.5001   27.6423  -77.1124 O.2       9 UNK        -0.5274 
     30 CA        -71.5928   26.2864  -75.3319 C.3       8 UNK         0.0270 
     31 CB        -72.1787   26.0990  -73.9173 C.3       8 UNK        -0.1976 
     32 N         -72.0029   25.1520  -76.1609 N.am      8 UNK        -0.4313 
     33 C         -71.1941   24.4382  -76.9557 C.2       8 UNK         0.5041 
     34 O         -69.9877   24.6622  -77.0735 O.2       8 UNK        -0.5577 
     35 CA        -71.8002   23.2502  -77.7317 C.3       7 UNK         0.0284 
     36 CB        -71.2751   21.9185  -77.1676 C.3       7 UNK        -0.1958 
     37 N         -73.2644   23.2206  -77.7110 N.am      7 UNK        -0.4454 
     38 C         -74.0571   23.9227  -78.5310 C.2       7 UNK         0.5089 
     39 O         -73.6384   24.6163  -79.4581 O.2       7 UNK        -0.5125 
     40 CA        -75.5763   23.8448  -78.2740 C.3       6 UNK         0.0408 
     41 CB        -76.2335   22.8526  -79.2464 C.3       6 UNK        -0.1791 
     42 N         -75.9677   23.4983  -76.8998 N.am      6 UNK        -0.4762 
     43 C         -75.6373   24.1889  -75.7984 C.2       6 UNK         0.5007 
     44 O         -74.8500   25.1352  -75.8100 O.2       6 UNK        -0.5032 
     45 CA        -76.2941   23.7532  -74.4715 C.3       5 UNK         0.0783 
     46 C46       -75.7866   24.6015  -73.2818 C.3       11 UNK        -0.0857 
     47 S47       -76.3931   24.0163  -71.6702 S.3       11 UNK        -0.2512 
     48 C48       -75.7018   25.3074  -70.5885 C.3       11 UNK         0.0225 
     49 N         -77.7526   23.8110  -74.5991 N.am      5 UNK        -0.4615 
     50 C         -78.5170   22.8270  -75.0864 C.2       4 UNK         0.5053 
     51 O         -78.0771   21.7349  -75.4467 O.2       4 UNK        -0.5105 
     52 CA        -80.0072   23.1455  -75.2634 C.3       4 UNK         0.0263 
     53 CB        -80.7331   23.1754  -73.9081 C.3       4 UNK        -0.1981 
     54 N         -80.1774   24.4176  -75.9713 N.am      4 UNK        -0.4224 
     55 C         -79.9966   24.5580  -77.2955 C.2       3 UNK         0.4895 
     56 O         -79.7925   23.6116  -78.0564 O.2       3 UNK        -0.5091 
     57 CA        -80.0374   25.9783  -77.8878 C.3       3 UNK         0.0250 
     58 CB        -81.3927   26.2515  -78.5595 C.3       3 UNK        -0.1996 
     59 N         -79.7541   27.0190  -76.8969 N.am      3 UNK        -0.4254 
     60 C         -78.5213   27.3113  -76.4529 C.2       2 UNK         0.5004 
     61 O         -77.5024   26.7904  -76.9009 O.2       2 UNK        -0.5226 
     62 CA        -78.3880   28.3492  -75.3197 C.3       2 UNK         0.0269 
     63 CB        -77.9342   29.7010  -75.8962 C.3       2 UNK        -0.1926 
     64 N         -79.6132   28.5474  -74.5361 N.am      2 UNK        -0.4687 
     65 C         -80.2126   27.5967  -73.8054 C.2       1 UNK         0.5165 
     66 O         -79.7684   26.4508  -73.6914 O.2       1 UNK        -0.5079 
     67 H67       -83.9656   24.7553  -73.2803 H         1 UNK         0.0900 
     68 H68       -85.0332   25.5474  -74.4441 H         1 UNK         0.0900 
     69 H69       -83.7517   24.4749  -75.0102 H         1 UNK         0.0900 
     70 H70       -82.7077   26.4119  -72.3512 H         1 UNK         0.2959 
     71 H71       -81.9842   28.7798  -73.7830 H         1 UNK         0.1079 
     72 H72       -82.3653   29.0592  -71.4685 H         1 UNK         0.0837 
     73 H73       -80.6784   29.3537  -71.7202 H         1 UNK         0.0837 
     74 H74       -79.9698   29.1891  -69.3512 H         1 UNK         0.0685 
     75 H75       -79.6721   27.6855  -68.5208 H         1 UNK         0.0685 
     76 H76       -78.0949   25.9756  -69.5038 H         1 UNK         0.1434 
     77 H77       -74.9853   27.5453  -72.0103 H         1 UNK         0.1329 
     78 H78       -78.4223   29.9407  -71.1009 H         1 UNK         0.1335 
     79 H79       -76.9425   30.5216  -72.9647 H         1 UNK         0.0680 
     80 H80       -75.5091   29.5893  -73.3372 H         1 UNK         0.0680 
     81 H81       -75.4018   33.4538  -72.0973 H         1 UNK         0.1032 
     82 H82       -75.7730   32.4651  -73.4623 H         1 UNK         0.1032 
     83 H83       -73.8306   33.8469  -73.8556 H         1 UNK         0.0461 
     84 H84       -71.0120   32.6893  -73.3674 H         1 UNK         0.3453 
     85 H85       -70.5895   33.4987  -71.8782 H         1 UNK         0.3453 
     86 H86       -73.4426   32.3020  -75.2904 H         1 UNK         0.2984 
     87 H87       -73.2595   30.0124  -76.1124 H         1 UNK         0.0554 
     88 H88       -71.5254   31.7713  -76.6082 H         1 UNK         0.0847 
     89 H89       -71.0180   30.2241  -77.2568 H         1 UNK         0.0847 
     90 H90       -70.3046   30.8280  -75.7637 H         1 UNK         0.0847 
     91 H91       -71.6057   28.5944  -74.2342 H         1 UNK         0.3141 
     92 H92       -70.5045   26.3185  -75.2502 H         1 UNK         0.0743 
     93 H93       -73.2528   26.2857  -73.9011 H         1 UNK         0.0784 
     94 H94       -72.0073   25.0890  -73.5442 H         1 UNK         0.0784 
     95 H95       -71.7199   26.7821  -73.2019 H         1 UNK         0.0784 
     96 H96       -73.0063   24.9863  -76.1925 H         1 UNK         0.3213 
     97 H97       -71.4628   23.3355  -78.7671 H         1 UNK         0.0855 
     98 H98       -71.5696   21.7757  -76.1271 H         1 UNK         0.0814 
     99 H99       -70.1855   21.8806  -77.2050 H         1 UNK         0.0814 
    100 H100      -71.6454   21.0695  -77.7426 H         1 UNK         0.0814 
    101 H101      -73.7023   22.6720  -76.9854 H         1 UNK         0.3105 
    102 H102      -75.9835   24.8373  -78.4780 H         1 UNK         0.0547 
    103 H103      -75.9912   23.0997  -80.2810 H         1 UNK         0.0837 
    104 H104      -75.8979   21.8304  -79.0678 H         1 UNK         0.0837 
    105 H105      -77.3200   22.8707  -79.1585 H         1 UNK         0.0837 
    106 H106      -76.6258   22.7351  -76.7934 H         1 UNK         0.3020 
    107 H107      -75.9875   22.7198  -74.2925 H         1 UNK         0.1245 
    108 H108      -76.0744   25.6453  -73.4168 H         1 UNK         0.0781 
    109 H109      -74.6969   24.5770  -73.2362 H         1 UNK         0.0781 
    110 H110      -74.6407   25.4420  -70.8044 H         1 UNK         0.0836 
    111 H111      -75.7601   24.9690  -69.5529 H         1 UNK         0.0836 
    112 H112      -78.1914   24.6824  -74.3321 H         1 UNK         0.3022 
    113 H113      -80.4534   22.3477  -75.8615 H         1 UNK         0.0747 
    114 H114      -81.8023   23.3354  -74.0356 H         1 UNK         0.0793 
    115 H115      -80.6118   22.2263  -73.3843 H         1 UNK         0.0793 
    116 H116      -80.3514   23.9564  -73.2504 H         1 UNK         0.0793 
    117 H117      -80.3017   25.2449  -75.3998 H         1 UNK         0.3047 
    118 H118      -79.2693   26.0256  -78.6633 H         1 UNK         0.0822 
    119 H119      -81.4271   27.2493  -78.9970 H         1 UNK         0.0807 
    120 H120      -82.2215   26.1619  -77.8580 H         1 UNK         0.0807 
    121 H121      -81.5754   25.5391  -79.3651 H         1 UNK         0.0807 
    122 H122      -80.5507   27.4813  -76.4793 H         1 UNK         0.2946 
    123 H123      -77.6157   27.9831  -74.6386 H         1 UNK         0.1144 
    124 H124      -76.9766   29.6021  -76.4097 H         1 UNK         0.0793 
    125 H125      -77.8063   30.4517  -75.1180 H         1 UNK         0.0793 
    126 H126      -78.6519   30.0909  -76.6192 H         1 UNK         0.0793 
    127 H127      -80.0413   29.4602  -74.5997 H         1 UNK         0.2896 
@<TRIPOS>BOND
     1    1    2 1    
     2    1   67 1    
     3    1   68 1    
     4    1   69 1    
     5    2    3 2    
     6    2    4 am   BACKBONE|DICT|INTERRES
     7    4    5 1    
     8    4   70 1    
     9    5    6 1    
    10    5   65 1    
    11    5   71 1    
    12    6    7 1    
    13    6   72 1    
    14    6   73 1    
    15    7    8 1    
    16    8    9 1    
    17    8   74 1    
    18    8   75 1    
    19    9   10 ar   
    20    9   14 ar   
    21   10   11 ar   
    22   10   76 1    
    23   11   12 ar   
    24   11   48 1    
    25   12   13 ar   
    26   12   77 1    
    27   13   14 ar   
    28   13   15 1    
    29   14   78 1    
    30   15   16 1    
    31   15   79 1    
    32   15   80 1    
    33   16   17 1    
    34   17   18 1    
    35   17   81 1    
    36   17   82 1    
    37   18   19 1    
    38   18   22 1    
    39   18   83 1    
    40   19   20 am   BACKBONE|DICT|INTERRES
    41   19   21 2    
    42   20   84 1    
    43   20   85 1    
    44   22   23 am   BACKBONE|DICT|INTERRES
    45   22   86 1    
    46   23   24 2    
    47   23   25 1    
    48   25   26 1    
    49   25   27 1    
    50   25   87 1    
    51   26   88 1    
    52   26   89 1    
    53   26   90 1    
    54   27   28 am   BACKBONE|DICT|INTERRES
    55   27   91 1    
    56   28   29 2    
    57   28   30 1    
    58   30   31 1    
    59   30   32 1    
    60   30   92 1    
    61   31   93 1    
    62   31   94 1    
    63   31   95 1    
    64   32   33 am   BACKBONE|DICT|INTERRES
    65   32   96 1    
    66   33   34 2    
    67   33   35 1    
    68   35   36 1    
    69   35   37 1    
    70   35   97 1    
    71   36   98 1    
    72   36   99 1    
    73   36  100 1    
    74   37   38 am   BACKBONE|DICT|INTERRES
    75   37  101 1    
    76   38   39 2    
    77   38   40 1    
    78   40   41 1    
    79   40   42 1    
    80   40  102 1    
    81   41  103 1    
    82   41  104 1    
    83   41  105 1    
    84   42   43 am   BACKBONE|DICT|INTERRES
    85   42  106 1    
    86   43   44 2    
    87   43   45 1    
    88   45   46 1    
    89   45   49 1    
    90   45  107 1    
    91   46   47 1    
    92   46  108 1    
    93   46  109 1    
    94   47   48 1    
    95   48  110 1    
    96   48  111 1    
    97   49   50 am   BACKBONE|DICT|INTERRES
    98   49  112 1    
    99   50   51 2    
   100   50   52 1    
   101   52   53 1    
   102   52   54 1    
   103   52  113 1    
   104   53  114 1    
   105   53  115 1    
   106   53  116 1    
   107   54   55 am   BACKBONE|DICT|INTERRES
   108   54  117 1    
   109   55   56 2    
   110   55   57 1    
   111   57   58 1    
   112   57   59 1    
   113   57  118 1    
   114   58  119 1    
   115   58  120 1    
   116   58  121 1    
   117   59   60 am   BACKBONE|DICT|INTERRES
   118   59  122 1    
   119   60   61 2    
   120   60   62 1    
   121   62   63 1    
   122   62   64 1    
   123   62  123 1    
   124   63  124 1    
   125   63  125 1    
   126   63  126 1    
   127   64   65 am   BACKBONE|DICT|INTERRES
   128   64  127 1    
   129   65   66 2    
@<TRIPOS>SUBSTRUCTURE
     1 UNK         1 GROUP             0       ****    0 ROOT    
