@<TRIPOS>MOLECULE
3R135
127   129    1
SMALL
USER_CHARGES


@<TRIPOS>ATOM
      1 CA        -85.4281   27.6744  -71.2926 C.3       0 UNK        -0.1998 
      2 C         -84.3785   26.9251  -72.0999 C.2       0 UNK         0.4909 
      3 O         -84.5051   26.8200  -73.3208 O.2       0 UNK        -0.5240 
      4 N         -83.3392   26.4126  -71.4295 N.am      1 UNK        -0.4739 
      5 CA        -82.2628   25.6214  -72.0358 C.3       1 UNK         0.0864 
      6 C6        -81.0199   25.5389  -71.1144 C.3       11 UNK        -0.0881 
      7 S7        -80.1939   27.1543  -70.9531 S.3       11 UNK        -0.2682 
      8 C8        -78.9105   26.9905  -72.2330 C.3       11 UNK         0.0289 
      9 C9        -78.1343   28.2858  -72.3948 C.ar      11 UNK        -0.0687 
     10 C10       -78.5497   29.2422  -73.3249 C.ar      11 UNK        -0.0823 
     11 C11       -77.8359   30.4346  -73.4855 C.ar      11 UNK        -0.0830 
     12 C12       -76.7092   30.6726  -72.6927 C.ar      11 UNK        -0.1021 
     13 C13       -76.2917   29.7266  -71.7517 C.ar      11 UNK        -0.0753 
     14 C14       -77.0032   28.5316  -71.6125 C.ar      11 UNK        -0.0933 
     15 C15       -75.0854   29.9992  -70.8675 C.3       11 UNK         0.0166 
     16 S16       -73.5631   29.3215  -71.5897 S.3       11 UNK        -0.2615 
     17 C17       -73.2070   30.5519  -72.8950 C.3       11 UNK        -0.0865 
     18 CA        -71.7496   30.4944  -73.4235 C.3       10 UNK         0.0862 
     19 C         -70.7188   31.0016  -72.3724 C.2       10 UNK         0.5551 
     20 N         -70.6055   32.3132  -72.2088 N.am      10 UNK        -0.7319 
     21 O         -70.0469   30.2309  -71.6886 O.2       10 UNK        -0.5018 
     22 N         -71.4582   29.1656  -73.9717 N.am      10 UNK        -0.4509 
     23 C         -70.3593   28.7980  -74.6369 C.2       10 UNK         0.4899 
     24 O         -69.4413   29.5699  -74.9182 O.2       10 UNK        -0.4839 
     25 CA        -70.2749   27.3387  -75.1238 C.3       9 UNK         0.0222 
     26 CB        -69.0836   26.5925  -74.4889 C.3       9 UNK        -0.1966 
     27 N         -71.5274   26.5743  -75.0098 N.am      9 UNK        -0.4218 
     28 C         -72.1221   26.0626  -73.9192 C.2       9 UNK         0.5020 
     29 O         -71.6676   26.1675  -72.7805 O.2       9 UNK        -0.5274 
     30 CA        -73.4660   25.3256  -74.1146 C.3       8 UNK         0.0270 
     31 CB        -74.6146   26.1020  -73.4448 C.3       8 UNK        -0.1976 
     32 N         -73.8150   25.0923  -75.5184 N.am      8 UNK        -0.4313 
     33 C         -73.2075   24.2259  -76.3403 C.2       8 UNK         0.5041 
     34 O         -72.3429   23.4272  -75.9794 O.2       8 UNK        -0.5577 
     35 CA        -73.5843   24.3148  -77.8291 C.3       7 UNK         0.0284 
     36 CB        -74.7993   23.4302  -78.1489 C.3       7 UNK        -0.1958 
     37 N         -73.8482   25.6953  -78.2512 N.am      7 UNK        -0.4454 
     38 C         -72.9068   26.6413  -78.3819 C.2       7 UNK         0.5089 
     39 O         -71.7078   26.4396  -78.1961 O.2       7 UNK        -0.5125 
     40 CA        -73.3811   28.0575  -78.7494 C.3       6 UNK         0.0408 
     41 CB        -73.4892   28.2095  -80.2747 C.3       6 UNK        -0.1791 
     42 N         -74.6614   28.4076  -78.1305 N.am      6 UNK        -0.4762 
     43 C         -74.8340   28.6602  -76.8236 C.2       6 UNK         0.5007 
     44 O         -73.9213   28.6569  -75.9987 O.2       6 UNK        -0.5032 
     45 CA        -76.2840   28.9205  -76.3633 C.3       5 UNK         0.0783 
     46 C46       -76.6381   30.4197  -76.5491 C.3       11 UNK        -0.0857 
     47 S47       -78.3863   30.8071  -76.1905 S.3       11 UNK        -0.2512 
     48 C48       -78.2941   31.4753  -74.4984 C.3       11 UNK         0.0225 
     49 N         -77.2525   28.0268  -77.0174 N.am      5 UNK        -0.4615 
     50 C         -77.2252   26.6896  -76.9676 C.2       4 UNK         0.5053 
     51 O         -76.3327   26.0462  -76.4123 O.2       4 UNK        -0.5105 
     52 CA        -78.3398   25.9530  -77.7294 C.3       4 UNK         0.0263 
     53 CB        -78.0383   25.9482  -79.2379 C.3       4 UNK        -0.1981 
     54 N         -78.4807   24.5678  -77.2749 N.am      4 UNK        -0.4224 
     55 C         -79.0001   24.2048  -76.0967 C.2       3 UNK         0.4895 
     56 O         -79.5195   24.9899  -75.2964 O.2       3 UNK        -0.5091 
     57 CA        -78.8963   22.7111  -75.7416 C.3       3 UNK         0.0250 
     58 CB        -77.5245   22.4057  -75.1154 C.3       3 UNK        -0.1996 
     59 N         -79.9392   22.3606  -74.7809 N.am      3 UNK        -0.4254 
     60 C         -81.2232   22.1436  -75.0974 C.2       2 UNK         0.5004 
     61 O         -81.6372   21.9517  -76.2409 O.2       2 UNK        -0.5226 
     62 CA        -82.2110   22.2745  -73.9364 C.3       2 UNK         0.0269 
     63 CB        -82.0220   21.1477  -72.8992 C.3       2 UNK        -0.1926 
     64 N         -81.9976   23.5998  -73.3551 N.am      2 UNK        -0.4687 
     65 C         -82.7409   24.2077  -72.4272 C.2       1 UNK         0.5165 
     66 O         -83.7224   23.6971  -71.8807 O.2       1 UNK        -0.5079 
     67 H67       -85.1820   27.7034  -70.2312 H         1 UNK         0.0900 
     68 H68       -86.3994   27.1928  -71.4022 H         1 UNK         0.0900 
     69 H69       -85.5137   28.7006  -71.6487 H         1 UNK         0.0900 
     70 H70       -83.2913   26.5191  -70.4265 H         1 UNK         0.2959 
     71 H71       -81.9694   26.1225  -72.9619 H         1 UNK         0.1079 
     72 H72       -81.3015   25.1885  -70.1196 H         1 UNK         0.0837 
     73 H73       -80.2909   24.8164  -71.4872 H         1 UNK         0.0837 
     74 H74       -79.3739   26.7145  -73.1814 H         1 UNK         0.0685 
     75 H75       -78.2319   26.1768  -71.9717 H         1 UNK         0.0685 
     76 H76       -79.4275   29.0573  -73.9292 H         1 UNK         0.1434 
     77 H77       -76.1594   31.5976  -72.8002 H         1 UNK         0.1329 
     78 H78       -76.6817   27.7964  -70.8874 H         1 UNK         0.1335 
     79 H79       -74.9704   31.0693  -70.6882 H         1 UNK         0.0680 
     80 H80       -75.2389   29.5442  -69.8877 H         1 UNK         0.0680 
     81 H81       -73.4371   31.5527  -72.5254 H         1 UNK         0.1032 
     82 H82       -73.8987   30.3760  -73.7206 H         1 UNK         0.1032 
     83 H83       -71.6876   31.1796  -74.2713 H         1 UNK         0.0461 
     84 H84       -69.9529   32.6658  -71.5261 H         1 UNK         0.3453 
     85 H85       -71.1496   32.9587  -72.7597 H         1 UNK         0.3453 
     86 H86       -72.1451   28.4554  -73.7658 H         1 UNK         0.2984 
     87 H87       -70.0788   27.3990  -76.1950 H         1 UNK         0.0554 
     88 H88       -69.0125   25.5693  -74.8575 H         1 UNK         0.0847 
     89 H89       -69.1569   26.5562  -73.4017 H         1 UNK         0.0847 
     90 H90       -68.1428   27.0894  -74.7288 H         1 UNK         0.0847 
     91 H91       -72.0115   26.4481  -75.8892 H         1 UNK         0.3141 
     92 H92       -73.3769   24.3547  -73.6231 H         1 UNK         0.0743 
     93 H93       -74.7405   27.0939  -73.8804 H         1 UNK         0.0784 
     94 H94       -75.5636   25.5737  -73.5411 H         1 UNK         0.0784 
     95 H95       -74.4270   26.2397  -72.3791 H         1 UNK         0.0784 
     96 H96       -74.5922   25.6372  -75.8886 H         1 UNK         0.3213 
     97 H97       -72.7345   23.9410  -78.4050 H         1 UNK         0.0855 
     98 H98       -75.6937   23.7706  -77.6300 H         1 UNK         0.0814 
     99 H99       -74.6195   22.3975  -77.8465 H         1 UNK         0.0814 
    100 H100      -75.0132   23.4218  -79.2177 H         1 UNK         0.0814 
    101 H101      -74.8147   25.9618  -78.3646 H         1 UNK         0.3105 
    102 H102      -72.6273   28.7624  -78.3916 H         1 UNK         0.0547 
    103 H103      -72.5392   27.9751  -80.7572 H         1 UNK         0.0837 
    104 H104      -74.2419   27.5434  -80.6981 H         1 UNK         0.0837 
    105 H105      -73.7480   29.2308  -80.5545 H         1 UNK         0.0837 
    106 H106      -75.4707   28.4375  -78.7340 H         1 UNK         0.3020 
    107 H107      -76.3186   28.6929  -75.2952 H         1 UNK         0.1245 
    108 H108      -76.4483   30.7328  -77.5778 H         1 UNK         0.0781 
    109 H109      -75.9955   31.0422  -75.9232 H         1 UNK         0.0781 
    110 H110      -79.2820   31.8360  -74.2088 H         1 UNK         0.0836 
    111 H111      -77.6372   32.3466  -74.4942 H         1 UNK         0.0836 
    112 H112      -78.0188   28.4868  -77.4879 H         1 UNK         0.3022 
    113 H113      -79.2834   26.4747  -77.5550 H         1 UNK         0.0747 
    114 H114      -78.8302   25.4493  -79.7972 H         1 UNK         0.0793 
    115 H115      -77.9626   26.9632  -79.6302 H         1 UNK         0.0793 
    116 H116      -77.0997   25.4402  -79.4635 H         1 UNK         0.0793 
    117 H117      -78.0601   23.8595  -77.8574 H         1 UNK         0.3047 
    118 H118      -79.0211   22.1132  -76.6473 H         1 UNK         0.0822 
    119 H119      -76.7158   22.6129  -75.8159 H         1 UNK         0.0807 
    120 H120      -77.4425   21.3564  -74.8312 H         1 UNK         0.0807 
    121 H121      -77.3419   23.0102  -74.2257 H         1 UNK         0.0807 
    122 H122      -79.7106   22.5134  -73.8097 H         1 UNK         0.2946 
    123 H123      -83.2247   22.2255  -74.3404 H         1 UNK         0.1144 
    124 H124      -82.0788   20.1680  -73.3754 H         1 UNK         0.0793 
    125 H125      -82.7979   21.1742  -72.1344 H         1 UNK         0.0793 
    126 H126      -81.0574   21.2115  -72.3950 H         1 UNK         0.0793 
    127 H127      -81.2412   24.1239  -73.7812 H         1 UNK         0.2896 
@<TRIPOS>BOND
     1    1    2 1    
     2    1   67 1    
     3    1   68 1    
     4    1   69 1    
     5    2    3 2    
     6    2    4 am   BACKBONE|DICT|INTERRES
     7    4    5 1    
     8    4   70 1    
     9    5    6 1    
    10    5   65 1    
    11    5   71 1    
    12    6    7 1    
    13    6   72 1    
    14    6   73 1    
    15    7    8 1    
    16    8    9 1    
    17    8   74 1    
    18    8   75 1    
    19    9   10 ar   
    20    9   14 ar   
    21   10   11 ar   
    22   10   76 1    
    23   11   12 ar   
    24   11   48 1    
    25   12   13 ar   
    26   12   77 1    
    27   13   14 ar   
    28   13   15 1    
    29   14   78 1    
    30   15   16 1    
    31   15   79 1    
    32   15   80 1    
    33   16   17 1    
    34   17   18 1    
    35   17   81 1    
    36   17   82 1    
    37   18   19 1    
    38   18   22 1    
    39   18   83 1    
    40   19   20 am   BACKBONE|DICT|INTERRES
    41   19   21 2    
    42   20   84 1    
    43   20   85 1    
    44   22   23 am   BACKBONE|DICT|INTERRES
    45   22   86 1    
    46   23   24 2    
    47   23   25 1    
    48   25   26 1    
    49   25   27 1    
    50   25   87 1    
    51   26   88 1    
    52   26   89 1    
    53   26   90 1    
    54   27   28 am   BACKBONE|DICT|INTERRES
    55   27   91 1    
    56   28   29 2    
    57   28   30 1    
    58   30   31 1    
    59   30   32 1    
    60   30   92 1    
    61   31   93 1    
    62   31   94 1    
    63   31   95 1    
    64   32   33 am   BACKBONE|DICT|INTERRES
    65   32   96 1    
    66   33   34 2    
    67   33   35 1    
    68   35   36 1    
    69   35   37 1    
    70   35   97 1    
    71   36   98 1    
    72   36   99 1    
    73   36  100 1    
    74   37   38 am   BACKBONE|DICT|INTERRES
    75   37  101 1    
    76   38   39 2    
    77   38   40 1    
    78   40   41 1    
    79   40   42 1    
    80   40  102 1    
    81   41  103 1    
    82   41  104 1    
    83   41  105 1    
    84   42   43 am   BACKBONE|DICT|INTERRES
    85   42  106 1    
    86   43   44 2    
    87   43   45 1    
    88   45   46 1    
    89   45   49 1    
    90   45  107 1    
    91   46   47 1    
    92   46  108 1    
    93   46  109 1    
    94   47   48 1    
    95   48  110 1    
    96   48  111 1    
    97   49   50 am   BACKBONE|DICT|INTERRES
    98   49  112 1    
    99   50   51 2    
   100   50   52 1    
   101   52   53 1    
   102   52   54 1    
   103   52  113 1    
   104   53  114 1    
   105   53  115 1    
   106   53  116 1    
   107   54   55 am   BACKBONE|DICT|INTERRES
   108   54  117 1    
   109   55   56 2    
   110   55   57 1    
   111   57   58 1    
   112   57   59 1    
   113   57  118 1    
   114   58  119 1    
   115   58  120 1    
   116   58  121 1    
   117   59   60 am   BACKBONE|DICT|INTERRES
   118   59  122 1    
   119   60   61 2    
   120   60   62 1    
   121   62   63 1    
   122   62   64 1    
   123   62  123 1    
   124   63  124 1    
   125   63  125 1    
   126   63  126 1    
   127   64   65 am   BACKBONE|DICT|INTERRES
   128   64  127 1    
   129   65   66 2    
@<TRIPOS>SUBSTRUCTURE
     1 UNK         1 GROUP             0       ****    0 ROOT    
