@<TRIPOS>MOLECULE
3R135
127   129    1
SMALL
USER_CHARGES


@<TRIPOS>ATOM
      1 CA        -83.3090   22.5833  -72.6365 C.3       0 UNK        -0.1998 
      2 C         -83.3791   24.1026  -72.6116 C.2       0 UNK         0.4909 
      3 O         -84.4705   24.6644  -72.5377 O.2       0 UNK        -0.5240 
      4 N         -82.2247   24.7710  -72.6730 N.am      1 UNK        -0.4739 
      5 CA        -82.0789   26.2243  -72.7002 C.3       1 UNK         0.0864 
      6 C6        -82.1183   26.8266  -71.2719 C.3       11 UNK        -0.0881 
      7 S7        -82.2917   28.6467  -71.2470 S.3       11 UNK        -0.2682 
      8 C8        -81.0400   29.1433  -70.0180 C.3       11 UNK         0.0289 
      9 C9        -79.6139   28.9409  -70.5136 C.ar      11 UNK        -0.0687 
     10 C10       -78.8994   27.7965  -70.1468 C.ar      11 UNK        -0.0823 
     11 C11       -77.5887   27.6105  -70.5875 C.ar      11 UNK        -0.0830 
     12 C12       -76.9791   28.5985  -71.3609 C.ar      11 UNK        -0.1021 
     13 C13       -77.6826   29.7371  -71.7654 C.ar      11 UNK        -0.0753 
     14 C14       -79.0017   29.9037  -71.3255 C.ar      11 UNK        -0.0933 
     15 C15       -77.0423   30.7913  -72.6716 C.3       11 UNK         0.0166 
     16 S16       -75.9114   30.1076  -73.9409 S.3       11 UNK        -0.2615 
     17 C17       -74.3248   30.0363  -73.0345 C.3       11 UNK        -0.0865 
     18 CA        -73.1648   30.7120  -73.8085 C.3       10 UNK         0.0862 
     19 C         -71.9789   31.0447  -72.8520 C.2       10 UNK         0.5551 
     20 N         -70.7927   30.4705  -73.0116 N.am      10 UNK        -0.7319 
     21 O         -72.1418   31.8533  -71.9421 O.2       10 UNK        -0.5018 
     22 N         -72.7958   29.9259  -74.9964 N.am      10 UNK        -0.4509 
     23 C         -72.0592   30.3790  -76.0179 C.2       10 UNK         0.4899 
     24 O         -71.7170   31.5559  -76.1418 O.2       10 UNK        -0.4839 
     25 CA        -71.6180   29.3350  -77.0651 C.3       9 UNK         0.0222 
     26 CB        -70.3888   29.7921  -77.8749 C.3       9 UNK        -0.1966 
     27 N         -71.3907   27.9913  -76.5099 N.am      9 UNK        -0.4218 
     28 C         -70.5618   27.6509  -75.5070 C.2       9 UNK         0.5020 
     29 O         -69.8541   28.4617  -74.9088 O.2       9 UNK        -0.5274 
     30 CA        -70.5355   26.1790  -75.0526 C.3       8 UNK         0.0270 
     31 CB        -70.9751   26.0636  -73.5821 C.3       8 UNK        -0.1976 
     32 N         -71.3965   25.3216  -75.8693 N.am      8 UNK        -0.4313 
     33 C         -70.9886   24.6252  -76.9399 C.2       8 UNK         0.5041 
     34 O         -69.8157   24.5670  -77.3107 O.2       8 UNK        -0.5577 
     35 CA        -72.0668   23.8835  -77.7563 C.3       7 UNK         0.0284 
     36 CB        -72.1491   22.4110  -77.3233 C.3       7 UNK        -0.1958 
     37 N         -73.4009   24.4853  -77.6674 N.am      7 UNK        -0.4454 
     38 C         -73.7121   25.7332  -78.0475 C.2       7 UNK         0.5089 
     39 O         -72.9149   26.5023  -78.5849 O.2       7 UNK        -0.5125 
     40 CA        -75.1245   26.2397  -77.7106 C.3       6 UNK         0.0408 
     41 CB        -76.0498   26.0625  -78.9247 C.3       6 UNK        -0.1791 
     42 N         -75.7419   25.6178  -76.5321 N.am      6 UNK        -0.4762 
     43 C         -75.2271   25.5461  -75.2939 C.2       6 UNK         0.5007 
     44 O         -74.1007   25.9585  -75.0118 O.2       6 UNK        -0.5032 
     45 CA        -76.0868   24.8935  -74.1850 C.3       5 UNK         0.0783 
     46 C46       -76.2712   25.8608  -72.9940 C.3       11 UNK        -0.0857 
     47 S47       -77.0794   25.0711  -71.5582 S.3       11 UNK        -0.2512 
     48 C48       -76.8343   26.3305  -70.2622 C.3       11 UNK         0.0225 
     49 N         -77.3798   24.4008  -74.6742 N.am      5 UNK        -0.4615 
     50 C         -77.5643   23.2698  -75.3661 C.2       4 UNK         0.5053 
     51 O         -76.6552   22.5003  -75.6766 O.2       4 UNK        -0.5105 
     52 CA        -79.0009   22.9759  -75.8203 C.3       4 UNK         0.0263 
     53 CB        -79.8128   22.3351  -74.6823 C.3       4 UNK        -0.1981 
     54 N         -79.6663   24.1988  -76.2770 N.am      4 UNK        -0.4224 
     55 C         -79.5405   24.7080  -77.5116 C.2       3 UNK         0.4895 
     56 O         -78.9000   24.1649  -78.4113 O.2       3 UNK        -0.5091 
     57 CA        -80.2378   26.0504  -77.7991 C.3       3 UNK         0.0250 
     58 CB        -81.6499   25.8103  -78.3569 C.3       3 UNK        -0.1996 
     59 N         -80.3231   26.9217  -76.6248 N.am      3 UNK        -0.4254 
     60 C         -79.2771   27.5336  -76.0501 C.2       2 UNK         0.5004 
     61 O         -78.1344   27.4926  -76.4968 O.2       2 UNK        -0.5226 
     62 CA        -79.5434   28.2992  -74.7424 C.3       2 UNK         0.0269 
     63 CB        -79.7724   29.7889  -75.0399 C.3       2 UNK        -0.1926 
     64 N         -80.6769   27.7856  -73.9653 N.am      2 UNK        -0.4687 
     65 C         -80.7870   26.5435  -73.4769 C.2       1 UNK         0.5165 
     66 O         -79.9456   25.6588  -73.6696 O.2       1 UNK        -0.5079 
     67 H67       -83.8445   22.1658  -71.7835 H         1 UNK         0.0900 
     68 H68       -83.7699   22.2030  -73.5462 H         1 UNK         0.0900 
     69 H69       -82.2828   22.2232  -72.5978 H         1 UNK         0.0900 
     70 H70       -81.3458   24.2810  -72.7761 H         1 UNK         0.2959 
     71 H71       -82.9089   26.6357  -73.2795 H         1 UNK         0.1079 
     72 H72       -82.9781   26.4276  -70.7312 H         1 UNK         0.0837 
     73 H73       -81.2476   26.5063  -70.7024 H         1 UNK         0.0837 
     74 H74       -81.1906   30.1959  -69.7735 H         1 UNK         0.0685 
     75 H75       -81.2068   28.5923  -69.0910 H         1 UNK         0.0685 
     76 H76       -79.3637   27.0423  -69.5266 H         1 UNK         0.1434 
     77 H77       -75.9618   28.4450  -71.6797 H         1 UNK         0.1329 
     78 H78       -79.5585   30.7839  -71.6162 H         1 UNK         0.1335 
     79 H79       -77.8241   31.3396  -73.1987 H         1 UNK         0.0680 
     80 H80       -76.5227   31.5279  -72.0589 H         1 UNK         0.0680 
     81 H81       -74.4616   30.5049  -72.0605 H         1 UNK         0.1032 
     82 H82       -74.0779   28.9952  -72.8299 H         1 UNK         0.1032 
     83 H83       -73.5256   31.6796  -74.1628 H         1 UNK         0.0461 
     84 H84       -70.6184   29.8060  -73.7592 H         1 UNK         0.3453 
     85 H85       -70.0461   30.7095  -72.3792 H         1 UNK         0.3453 
     86 H86       -73.0444   28.9484  -74.9788 H         1 UNK         0.2984 
     87 H87       -72.4518   29.2385  -77.7597 H         1 UNK         0.0554 
     88 H88       -70.5888   30.7268  -78.3999 H         1 UNK         0.0847 
     89 H89       -70.1137   29.0539  -78.6264 H         1 UNK         0.0847 
     90 H90       -69.5238   29.9567  -77.2340 H         1 UNK         0.0847 
     91 H91       -71.9092   27.2511  -76.9718 H         1 UNK         0.3141 
     92 H92       -69.5007   25.8379  -75.1227 H         1 UNK         0.0743 
     93 H93       -71.9854   26.4436  -73.4285 H         1 UNK         0.0784 
     94 H94       -70.9507   25.0286  -73.2410 H         1 UNK         0.0784 
     95 H95       -70.3124   26.6330  -72.9298 H         1 UNK         0.0784 
     96 H96       -72.3870   25.3413  -75.6363 H         1 UNK         0.3213 
     97 H97       -71.7600   23.9180  -78.8040 H         1 UNK         0.0855 
     98 H98       -72.4794   22.3116  -76.2885 H         1 UNK         0.0814 
     99 H99       -71.1754   21.9262  -77.4026 H         1 UNK         0.0814 
    100 H100      -72.8393   21.8496  -77.9528 H         1 UNK         0.0814 
    101 H101      -74.1248   23.9325  -77.2290 H         1 UNK         0.3105 
    102 H102      -75.0424   27.3077  -77.4985 H         1 UNK         0.0547 
    103 H103      -75.6171   26.5161  -79.8176 H         1 UNK         0.0837 
    104 H104      -76.2289   25.0095  -79.1464 H         1 UNK         0.0837 
    105 H105      -77.0164   26.5389  -78.7616 H         1 UNK         0.0837 
    106 H106      -76.6918   25.2964  -76.6514 H         1 UNK         0.3020 
    107 H107      -75.5115   24.0355  -73.8296 H         1 UNK         0.1245 
    108 H108      -76.8686   26.7177  -73.3085 H         1 UNK         0.0781 
    109 H109      -75.3079   26.2527  -72.6615 H         1 UNK         0.0781 
    110 H110      -75.7689   26.5330  -70.1435 H         1 UNK         0.0836 
    111 H111      -77.1759   25.9274  -69.3077 H         1 UNK         0.0836 
    112 H112      -78.1922   24.9487  -74.4089 H         1 UNK         0.3022 
    113 H113      -78.9567   22.2618  -76.6458 H         1 UNK         0.0747 
    114 H114      -80.8387   22.1335  -74.9909 H         1 UNK         0.0793 
    115 H115      -79.3719   21.3834  -74.3826 H         1 UNK         0.0793 
    116 H116      -79.8442   22.9687  -73.7957 H         1 UNK         0.0793 
    117 H117      -80.1516   24.7396  -75.5723 H         1 UNK         0.3047 
    118 H118      -79.6519   26.5682  -78.5620 H         1 UNK         0.0822 
    119 H119      -82.1295   26.7473  -78.6402 H         1 UNK         0.0807 
    120 H120      -82.2926   25.3084  -77.6324 H         1 UNK         0.0807 
    121 H121      -81.6148   25.1839  -79.2496 H         1 UNK         0.0807 
    122 H122      -81.2317   27.0343  -76.2004 H         1 UNK         0.2946 
    123 H123      -78.6498   28.2034  -74.1218 H         1 UNK         0.1144 
    124 H124      -79.9251   30.3602  -74.1249 H         1 UNK         0.0793 
    125 H125      -80.6410   29.9446  -75.6805 H         1 UNK         0.0793 
    126 H126      -78.9085   30.2191  -75.5486 H         1 UNK         0.0793 
    127 H127      -81.3993   28.4530  -73.7323 H         1 UNK         0.2896 
@<TRIPOS>BOND
     1    1    2 1    
     2    1   67 1    
     3    1   68 1    
     4    1   69 1    
     5    2    3 2    
     6    2    4 am   BACKBONE|DICT|INTERRES
     7    4    5 1    
     8    4   70 1    
     9    5    6 1    
    10    5   65 1    
    11    5   71 1    
    12    6    7 1    
    13    6   72 1    
    14    6   73 1    
    15    7    8 1    
    16    8    9 1    
    17    8   74 1    
    18    8   75 1    
    19    9   10 ar   
    20    9   14 ar   
    21   10   11 ar   
    22   10   76 1    
    23   11   12 ar   
    24   11   48 1    
    25   12   13 ar   
    26   12   77 1    
    27   13   14 ar   
    28   13   15 1    
    29   14   78 1    
    30   15   16 1    
    31   15   79 1    
    32   15   80 1    
    33   16   17 1    
    34   17   18 1    
    35   17   81 1    
    36   17   82 1    
    37   18   19 1    
    38   18   22 1    
    39   18   83 1    
    40   19   20 am   BACKBONE|DICT|INTERRES
    41   19   21 2    
    42   20   84 1    
    43   20   85 1    
    44   22   23 am   BACKBONE|DICT|INTERRES
    45   22   86 1    
    46   23   24 2    
    47   23   25 1    
    48   25   26 1    
    49   25   27 1    
    50   25   87 1    
    51   26   88 1    
    52   26   89 1    
    53   26   90 1    
    54   27   28 am   BACKBONE|DICT|INTERRES
    55   27   91 1    
    56   28   29 2    
    57   28   30 1    
    58   30   31 1    
    59   30   32 1    
    60   30   92 1    
    61   31   93 1    
    62   31   94 1    
    63   31   95 1    
    64   32   33 am   BACKBONE|DICT|INTERRES
    65   32   96 1    
    66   33   34 2    
    67   33   35 1    
    68   35   36 1    
    69   35   37 1    
    70   35   97 1    
    71   36   98 1    
    72   36   99 1    
    73   36  100 1    
    74   37   38 am   BACKBONE|DICT|INTERRES
    75   37  101 1    
    76   38   39 2    
    77   38   40 1    
    78   40   41 1    
    79   40   42 1    
    80   40  102 1    
    81   41  103 1    
    82   41  104 1    
    83   41  105 1    
    84   42   43 am   BACKBONE|DICT|INTERRES
    85   42  106 1    
    86   43   44 2    
    87   43   45 1    
    88   45   46 1    
    89   45   49 1    
    90   45  107 1    
    91   46   47 1    
    92   46  108 1    
    93   46  109 1    
    94   47   48 1    
    95   48  110 1    
    96   48  111 1    
    97   49   50 am   BACKBONE|DICT|INTERRES
    98   49  112 1    
    99   50   51 2    
   100   50   52 1    
   101   52   53 1    
   102   52   54 1    
   103   52  113 1    
   104   53  114 1    
   105   53  115 1    
   106   53  116 1    
   107   54   55 am   BACKBONE|DICT|INTERRES
   108   54  117 1    
   109   55   56 2    
   110   55   57 1    
   111   57   58 1    
   112   57   59 1    
   113   57  118 1    
   114   58  119 1    
   115   58  120 1    
   116   58  121 1    
   117   59   60 am   BACKBONE|DICT|INTERRES
   118   59  122 1    
   119   60   61 2    
   120   60   62 1    
   121   62   63 1    
   122   62   64 1    
   123   62  123 1    
   124   63  124 1    
   125   63  125 1    
   126   63  126 1    
   127   64   65 am   BACKBONE|DICT|INTERRES
   128   64  127 1    
   129   65   66 2    
@<TRIPOS>SUBSTRUCTURE
     1 UNK         1 GROUP             0       ****    0 ROOT    
