@<TRIPOS>MOLECULE
3R135
127   129    1
SMALL
USER_CHARGES


@<TRIPOS>ATOM
      1 CA        -75.4668   27.3230  -70.6228 C.3       0 UNK        -0.1998 
      2 C         -76.7731   26.6277  -70.2693 C.2       0 UNK         0.4909 
      3 O         -76.8277   25.8824  -69.2911 O.2       0 UNK        -0.5240 
      4 N         -77.8260   26.8647  -71.0626 N.am      1 UNK        -0.4739 
      5 CA        -79.1495   26.2502  -70.9002 C.3       1 UNK         0.0864 
      6 C6        -80.2277   26.9980  -71.7264 C.3       11 UNK        -0.0881 
      7 S7        -80.7300   28.6067  -71.0261 S.3       11 UNK        -0.2682 
      8 C8        -79.3964   29.7599  -71.5009 C.3       11 UNK         0.0289 
      9 C9        -78.9308   29.6441  -72.9494 C.ar      11 UNK        -0.0687 
     10 C10       -79.8424   29.6480  -74.0123 C.ar      11 UNK        -0.0823 
     11 C11       -79.3927   29.5637  -75.3349 C.ar      11 UNK        -0.0830 
     12 C12       -78.0190   29.5066  -75.5893 C.ar      11 UNK        -0.1021 
     13 C13       -77.1001   29.4900  -74.5386 C.ar      11 UNK        -0.0753 
     14 C14       -77.5631   29.5581  -73.2226 C.ar      11 UNK        -0.0933 
     15 C15       -75.6140   29.3529  -74.8312 C.3       11 UNK         0.0166 
     16 S16       -74.6770   30.8796  -74.4867 S.3       11 UNK        -0.2615 
     17 C17       -74.3040   30.6969  -72.7061 C.3       11 UNK        -0.0865 
     18 CA        -72.8518   31.0874  -72.3241 C.3       10 UNK         0.0862 
     19 C         -72.6685   31.0333  -70.7785 C.2       10 UNK         0.5551 
     20 N         -71.8623   30.1295  -70.2347 N.am      10 UNK        -0.7319 
     21 O         -73.2714   31.8286  -70.0621 O.2       10 UNK        -0.5018 
     22 N         -71.8523   30.3209  -73.0882 N.am      10 UNK        -0.4509 
     23 C         -70.5652   30.6741  -73.2314 C.2       10 UNK         0.4899 
     24 O         -70.0710   31.6793  -72.7196 O.2       10 UNK        -0.4839 
     25 CA        -69.6677   29.7664  -74.0975 C.3       9 UNK         0.0222 
     26 CB        -68.8696   28.7973  -73.2106 C.3       9 UNK        -0.1966 
     27 N         -70.4249   28.9998  -75.0879 N.am      9 UNK        -0.4218 
     28 C         -71.0651   29.5305  -76.1367 C.2       9 UNK         0.5020 
     29 O         -70.9079   30.6963  -76.5040 O.2       9 UNK        -0.5274 
     30 CA        -72.0655   28.6395  -76.9021 C.3       8 UNK         0.0270 
     31 CB        -71.6116   28.4457  -78.3595 C.3       8 UNK        -0.1976 
     32 N         -72.3790   27.3181  -76.3372 N.am      8 UNK        -0.4313 
     33 C         -72.8337   27.0135  -75.1144 C.2       8 UNK         0.5041 
     34 O         -72.8502   27.8088  -74.1743 O.2       8 UNK        -0.5577 
     35 CA        -73.3679   25.5784  -74.9168 C.3       7 UNK         0.0284 
     36 CB        -74.0054   25.3746  -73.5290 C.3       7 UNK        -0.1958 
     37 N         -74.3458   25.1879  -75.9414 N.am      7 UNK        -0.4454 
     38 C         -74.0664   24.8526  -77.2081 C.2       7 UNK         0.5089 
     39 O         -72.9253   24.8659  -77.6722 O.2       7 UNK        -0.5125 
     40 CA        -75.2366   24.4376  -78.1162 C.3       6 UNK         0.0408 
     41 CB        -75.2114   22.9190  -78.3549 C.3       6 UNK        -0.1791 
     42 N         -76.5609   24.8123  -77.6114 N.am      6 UNK        -0.4762 
     43 C         -77.1063   26.0369  -77.6891 C.2       6 UNK         0.5007 
     44 O         -76.4819   27.0249  -78.0773 O.2       6 UNK        -0.5032 
     45 CA        -78.5899   26.1683  -77.2539 C.3       5 UNK         0.0783 
     46 C46       -79.3365   27.3470  -77.9457 C.3       11 UNK        -0.0857 
     47 S47       -80.8207   27.8538  -77.0099 S.3       11 UNK        -0.2512 
     48 C48       -80.3886   29.5494  -76.4877 C.3       11 UNK         0.0225 
     49 N         -79.3132   24.8862  -77.3538 N.am      5 UNK        -0.4615 
     50 C         -79.5725   24.1984  -78.4807 C.2       4 UNK         0.5053 
     51 O         -79.2933   24.6118  -79.6064 O.2       4 UNK        -0.5105 
     52 CA        -80.1873   22.7894  -78.3573 C.3       4 UNK         0.0263 
     53 CB        -79.2303   21.7324  -78.9378 C.3       4 UNK        -0.1981 
     54 N         -80.5090   22.4107  -76.9812 N.am      4 UNK        -0.4224 
     55 C         -81.6634   22.6825  -76.3605 C.2       3 UNK         0.4895 
     56 O         -82.6211   23.2373  -76.9001 O.2       3 UNK        -0.5091 
     57 CA        -81.7612   22.2798  -74.8764 C.3       3 UNK         0.0250 
     58 CB        -82.4327   20.9034  -74.7394 C.3       3 UNK        -0.1996 
     59 N         -80.4836   22.2706  -74.1463 N.am      3 UNK        -0.4254 
     60 C         -79.6788   23.3320  -74.0004 C.2       2 UNK         0.5004 
     61 O         -79.8520   24.4081  -74.5770 O.2       2 UNK        -0.5226 
     62 CA        -78.4600   23.1779  -73.0756 C.3       2 UNK         0.0269 
     63 CB        -77.1839   22.9389  -73.9000 C.3       2 UNK        -0.1926 
     64 N         -78.3050   24.4011  -72.2867 N.am      2 UNK        -0.4687 
     65 C         -79.1526   24.7644  -71.3125 C.2       1 UNK         0.5165 
     66 O         -79.9565   23.9919  -70.7874 O.2       1 UNK        -0.5079 
     67 H67       -74.6253   26.6480  -70.4677 H         1 UNK         0.0900 
     68 H68       -75.3214   28.1992  -69.9915 H         1 UNK         0.0900 
     69 H69       -75.4499   27.6388  -71.6644 H         1 UNK         0.0900 
     70 H70       -77.7368   27.4977  -71.8439 H         1 UNK         0.2959 
     71 H71       -79.4249   26.2895  -69.8436 H         1 UNK         0.1079 
     72 H72       -79.9167   27.1119  -72.7662 H         1 UNK         0.0837 
     73 H73       -81.1467   26.4088  -71.7712 H         1 UNK         0.0837 
     74 H74       -79.7461   30.7789  -71.3310 H         1 UNK         0.0685 
     75 H75       -78.5621   29.6119  -70.8138 H         1 UNK         0.0685 
     76 H76       -80.9025   29.7089  -73.8069 H         1 UNK         0.1434 
     77 H77       -77.6571   29.4628  -76.6062 H         1 UNK         0.1329 
     78 H78       -76.8549   29.5593  -72.4077 H         1 UNK         0.1335 
     79 H79       -75.4540   29.0799  -75.8756 H         1 UNK         0.0680 
     80 H80       -75.2282   28.5225  -74.2439 H         1 UNK         0.0680 
     81 H81       -74.4841   29.6667  -72.4003 H         1 UNK         0.1032 
     82 H82       -75.0220   31.3098  -72.1576 H         1 UNK         0.1032 
     83 H83       -72.7215   32.1357  -72.6000 H         1 UNK         0.0461 
     84 H84       -71.7475   30.1050  -69.2339 H         1 UNK         0.3453 
     85 H85       -71.3674   29.4753  -70.8187 H         1 UNK         0.3453 
     86 H86       -72.1889   29.4676  -73.5300 H         1 UNK         0.2984 
     87 H87       -68.9609   30.4068  -74.6293 H         1 UNK         0.0554 
     88 H88       -68.1763   28.1979  -73.8010 H         1 UNK         0.0847 
     89 H89       -69.5236   28.1155  -72.6652 H         1 UNK         0.0847 
     90 H90       -68.2776   29.3412  -72.4730 H         1 UNK         0.0847 
     91 H91       -70.6726   28.0532  -74.8364 H         1 UNK         0.3141 
     92 H92       -73.0054   29.1948  -76.9156 H         1 UNK         0.0743 
     93 H93       -70.6933   27.8601  -78.4182 H         1 UNK         0.0784 
     94 H94       -72.3741   27.9353  -78.9486 H         1 UNK         0.0784 
     95 H95       -71.4202   29.4033  -78.8461 H         1 UNK         0.0784 
     96 H96       -72.3923   26.5499  -77.0043 H         1 UNK         0.3213 
     97 H97       -72.5069   24.9101  -74.9876 H         1 UNK         0.0855 
     98 H98       -74.8944   25.9921  -73.4013 H         1 UNK         0.0814 
     99 H99       -73.3075   25.6363  -72.7324 H         1 UNK         0.0814 
    100 H100      -74.2915   24.3348  -73.3728 H         1 UNK         0.0814 
    101 H101      -75.3158   25.1905  -75.6669 H         1 UNK         0.3105 
    102 H102      -75.0860   24.9315  -79.0786 H         1 UNK         0.0547 
    103 H103      -74.2471   22.6016  -78.7546 H         1 UNK         0.0837 
    104 H104      -75.3807   22.3603  -77.4335 H         1 UNK         0.0837 
    105 H105      -75.9704   22.6186  -79.0773 H         1 UNK         0.0837 
    106 H106      -77.1466   24.0602  -77.2804 H         1 UNK         0.3020 
    107 H107      -78.5370   26.3994  -76.1880 H         1 UNK         0.1245 
    108 H108      -78.6951   28.2168  -78.0754 H         1 UNK         0.0781 
    109 H109      -79.6428   27.0800  -78.9571 H         1 UNK         0.0781 
    110 H110      -79.9961   30.1112  -77.3368 H         1 UNK         0.0836 
    111 H111      -81.3040   30.0630  -76.1897 H         1 UNK         0.0836 
    112 H112      -79.6217   24.5097  -76.4607 H         1 UNK         0.3022 
    113 H113      -81.1004   22.7839  -78.9566 H         1 UNK         0.0747 
    114 H114      -79.6782   20.7387  -78.9154 H         1 UNK         0.0793 
    115 H115      -78.9871   21.9495  -79.9789 H         1 UNK         0.0793 
    116 H116      -78.2907   21.6891  -78.3860 H         1 UNK         0.0793 
    117 H117      -79.7869   21.9404  -76.4556 H         1 UNK         0.3047 
    118 H118      -82.4017   23.0195  -74.3911 H         1 UNK         0.0822 
    119 H119      -82.6191   20.6536  -73.6947 H         1 UNK         0.0807 
    120 H120      -81.8211   20.1105  -75.1719 H         1 UNK         0.0807 
    121 H121      -83.3969   20.8860  -75.2499 H         1 UNK         0.0807 
    122 H122      -80.2591   21.4188  -73.6514 H         1 UNK         0.2946 
    123 H123      -78.6159   22.3337  -72.3998 H         1 UNK         0.1144 
    124 H124      -77.2671   22.0287  -74.4955 H         1 UNK         0.0793 
    125 H125      -76.3141   22.8214  -73.2537 H         1 UNK         0.0793 
    126 H126      -76.9839   23.7621  -74.5864 H         1 UNK         0.0793 
    127 H127      -77.6986   25.1109  -72.6676 H         1 UNK         0.2896 
@<TRIPOS>BOND
     1    1    2 1    
     2    1   67 1    
     3    1   68 1    
     4    1   69 1    
     5    2    3 2    
     6    2    4 am   BACKBONE|DICT|INTERRES
     7    4    5 1    
     8    4   70 1    
     9    5    6 1    
    10    5   65 1    
    11    5   71 1    
    12    6    7 1    
    13    6   72 1    
    14    6   73 1    
    15    7    8 1    
    16    8    9 1    
    17    8   74 1    
    18    8   75 1    
    19    9   10 ar   
    20    9   14 ar   
    21   10   11 ar   
    22   10   76 1    
    23   11   12 ar   
    24   11   48 1    
    25   12   13 ar   
    26   12   77 1    
    27   13   14 ar   
    28   13   15 1    
    29   14   78 1    
    30   15   16 1    
    31   15   79 1    
    32   15   80 1    
    33   16   17 1    
    34   17   18 1    
    35   17   81 1    
    36   17   82 1    
    37   18   19 1    
    38   18   22 1    
    39   18   83 1    
    40   19   20 am   BACKBONE|DICT|INTERRES
    41   19   21 2    
    42   20   84 1    
    43   20   85 1    
    44   22   23 am   BACKBONE|DICT|INTERRES
    45   22   86 1    
    46   23   24 2    
    47   23   25 1    
    48   25   26 1    
    49   25   27 1    
    50   25   87 1    
    51   26   88 1    
    52   26   89 1    
    53   26   90 1    
    54   27   28 am   BACKBONE|DICT|INTERRES
    55   27   91 1    
    56   28   29 2    
    57   28   30 1    
    58   30   31 1    
    59   30   32 1    
    60   30   92 1    
    61   31   93 1    
    62   31   94 1    
    63   31   95 1    
    64   32   33 am   BACKBONE|DICT|INTERRES
    65   32   96 1    
    66   33   34 2    
    67   33   35 1    
    68   35   36 1    
    69   35   37 1    
    70   35   97 1    
    71   36   98 1    
    72   36   99 1    
    73   36  100 1    
    74   37   38 am   BACKBONE|DICT|INTERRES
    75   37  101 1    
    76   38   39 2    
    77   38   40 1    
    78   40   41 1    
    79   40   42 1    
    80   40  102 1    
    81   41  103 1    
    82   41  104 1    
    83   41  105 1    
    84   42   43 am   BACKBONE|DICT|INTERRES
    85   42  106 1    
    86   43   44 2    
    87   43   45 1    
    88   45   46 1    
    89   45   49 1    
    90   45  107 1    
    91   46   47 1    
    92   46  108 1    
    93   46  109 1    
    94   47   48 1    
    95   48  110 1    
    96   48  111 1    
    97   49   50 am   BACKBONE|DICT|INTERRES
    98   49  112 1    
    99   50   51 2    
   100   50   52 1    
   101   52   53 1    
   102   52   54 1    
   103   52  113 1    
   104   53  114 1    
   105   53  115 1    
   106   53  116 1    
   107   54   55 am   BACKBONE|DICT|INTERRES
   108   54  117 1    
   109   55   56 2    
   110   55   57 1    
   111   57   58 1    
   112   57   59 1    
   113   57  118 1    
   114   58  119 1    
   115   58  120 1    
   116   58  121 1    
   117   59   60 am   BACKBONE|DICT|INTERRES
   118   59  122 1    
   119   60   61 2    
   120   60   62 1    
   121   62   63 1    
   122   62   64 1    
   123   62  123 1    
   124   63  124 1    
   125   63  125 1    
   126   63  126 1    
   127   64   65 am   BACKBONE|DICT|INTERRES
   128   64  127 1    
   129   65   66 2    
@<TRIPOS>SUBSTRUCTURE
     1 UNK         1 GROUP             0       ****    0 ROOT    
