@<TRIPOS>MOLECULE
3R135
127   129    1
SMALL
USER_CHARGES


@<TRIPOS>ATOM
      1 CA        -85.5139   28.1532  -74.5021 C.3       0 UNK        -0.1998 
      2 C         -84.0475   27.8319  -74.7478 C.2       0 UNK         0.4909 
      3 O         -83.6297   26.7021  -74.4976 O.2       0 UNK        -0.5240 
      4 N         -83.2893   28.8142  -75.2588 N.am      1 UNK        -0.4739 
      5 CA        -81.8443   28.8624  -75.5618 C.3       1 UNK         0.0864 
      6 C6        -80.9396   28.9944  -74.3046 C.3       11 UNK        -0.0881 
      7 S7        -80.6847   27.4612  -73.3412 S.3       11 UNK        -0.2682 
      8 C8        -80.4844   28.1031  -71.6507 C.3       11 UNK         0.0289 
      9 C9        -79.0247   28.3599  -71.2969 C.ar      11 UNK        -0.0687 
     10 C10       -78.3231   27.4315  -70.5196 C.ar      11 UNK        -0.0823 
     11 C11       -77.0066   27.6871  -70.1239 C.ar      11 UNK        -0.0830 
     12 C12       -76.3966   28.8814  -70.5074 C.ar      11 UNK        -0.1021 
     13 C13       -77.0649   29.7981  -71.3227 C.ar      11 UNK        -0.0753 
     14 C14       -78.3851   29.5357  -71.7080 C.ar      11 UNK        -0.0933 
     15 C15       -76.3625   31.0777  -71.7610 C.3       11 UNK         0.0166 
     16 S16       -75.2118   30.7967  -73.1492 S.3       11 UNK        -0.2615 
     17 C17       -73.8498   29.8882  -72.3337 C.3       11 UNK        -0.0865 
     18 CA        -72.4689   30.0833  -73.0117 C.3       10 UNK         0.0862 
     19 C         -71.3280   29.4113  -72.1881 C.2       10 UNK         0.5551 
     20 N         -70.4813   28.5661  -72.7664 N.am      10 UNK        -0.7319 
     21 O         -71.1979   29.6767  -70.9956 O.2       10 UNK        -0.5018 
     22 N         -72.4898   29.6914  -74.4289 N.am      10 UNK        -0.4509 
     23 C         -71.6904   30.2140  -75.3663 C.2       10 UNK         0.4899 
     24 O         -70.8931   31.1295  -75.1535 O.2       10 UNK        -0.4839 
     25 CA        -71.8012   29.6029  -76.7743 C.3       9 UNK         0.0222 
     26 CB        -70.6520   30.0313  -77.7120 C.3       9 UNK        -0.1966 
     27 N         -71.9434   28.1421  -76.7606 N.am      9 UNK        -0.4218 
     28 C         -71.0753   27.2337  -76.2865 C.2       9 UNK         0.5020 
     29 O         -70.0301   27.5399  -75.7101 O.2       9 UNK        -0.5274 
     30 CA        -71.4137   25.7353  -76.4694 C.3       8 UNK         0.0270 
     31 CB        -71.1039   24.9272  -75.1961 C.3       8 UNK        -0.1976 
     32 N         -72.8029   25.4828  -76.8618 N.am      8 UNK        -0.4313 
     33 C         -73.3184   25.6439  -78.0886 C.2       8 UNK         0.5041 
     34 O         -72.6466   25.9224  -79.0816 O.2       8 UNK        -0.5577 
     35 CA        -74.8520   25.5567  -78.2120 C.3       7 UNK         0.0284 
     36 CB        -75.2861   24.1282  -78.5711 C.3       7 UNK        -0.1958 
     37 N         -75.5483   26.0051  -76.9982 N.am      7 UNK        -0.4454 
     38 C         -75.4744   27.2476  -76.4967 C.2       7 UNK         0.5089 
     39 O         -74.8678   28.1668  -77.0460 O.2       7 UNK        -0.5125 
     40 CA        -76.1282   27.5002  -75.1320 C.3       6 UNK         0.0408 
     41 CB        -77.5940   27.9096  -75.2882 C.3       6 UNK        -0.1791 
     42 N         -76.0352   26.3434  -74.2429 N.am      6 UNK        -0.4762 
     43 C         -74.9307   26.0015  -73.5652 C.2       6 UNK         0.5007 
     44 O         -73.8754   26.6334  -73.6248 O.2       6 UNK        -0.5032 
     45 CA        -75.0046   24.7011  -72.7314 C.3       5 UNK         0.0783 
     46 C46       -75.7412   24.9014  -71.3843 C.3       11 UNK        -0.0857 
     47 S47       -74.8447   25.9416  -70.1879 S.3       11 UNK        -0.2512 
     48 C48       -76.2349   26.6879  -69.2726 C.3       11 UNK         0.0225 
     49 N         -75.6412   23.6123  -73.4749 N.am      5 UNK        -0.4615 
     50 C         -75.2274   23.0967  -74.6385 C.2       4 UNK         0.5053 
     51 O         -74.1866   23.4248  -75.2052 O.2       4 UNK        -0.5105 
     52 CA        -76.1739   22.0784  -75.3032 C.3       4 UNK         0.0263 
     53 CB        -75.8206   20.6504  -74.8592 C.3       4 UNK        -0.1981 
     54 N         -77.5976   22.3366  -75.0415 N.am      4 UNK        -0.4224 
     55 C         -78.2432   23.4708  -75.3522 C.2       3 UNK         0.4895 
     56 O         -77.7035   24.4367  -75.8962 O.2       3 UNK        -0.5091 
     57 CA        -79.7088   23.5654  -74.8957 C.3       3 UNK         0.0250 
     58 CB        -79.7683   23.9353  -73.4037 C.3       3 UNK        -0.1996 
     59 N         -80.4743   24.5535  -75.6619 N.am      3 UNK        -0.4254 
     60 C         -80.7913   24.4359  -76.9600 C.2       2 UNK         0.5004 
     61 O         -80.4944   23.4539  -77.6431 O.2       2 UNK        -0.5226 
     62 CA        -81.5981   25.5746  -77.6116 C.3       2 UNK         0.0269 
     63 CB        -82.9148   25.0395  -78.2026 C.3       2 UNK        -0.1926 
     64 N         -81.9231   26.6517  -76.6740 N.am      2 UNK        -0.4687 
     65 C         -81.3107   27.8367  -76.5933 C.2       1 UNK         0.5165 
     66 O         -80.3675   28.1566  -77.3178 O.2       1 UNK        -0.5079 
     67 H67       -85.7559   28.0112  -73.4492 H         1 UNK         0.0900 
     68 H68       -86.1468   27.4886  -75.0897 H         1 UNK         0.0900 
     69 H69       -85.7595   29.1806  -74.7703 H         1 UNK         0.0900 
     70 H70       -83.7613   29.6838  -75.4659 H         1 UNK         0.2959 
     71 H71       -81.7454   29.8156  -76.0845 H         1 UNK         0.1079 
     72 H72       -81.3575   29.7617  -73.6522 H         1 UNK         0.0837 
     73 H73       -79.9622   29.3771  -74.5985 H         1 UNK         0.0837 
     74 H74       -80.9094   27.3725  -70.9608 H         1 UNK         0.0685 
     75 H75       -81.0700   29.0124  -71.5116 H         1 UNK         0.0685 
     76 H76       -78.8088   26.5161  -70.2103 H         1 UNK         0.1434 
     77 H77       -75.3877   29.0818  -70.1787 H         1 UNK         0.1329 
     78 H78       -78.9196   30.2499  -72.3186 H         1 UNK         0.1335 
     79 H79       -77.0997   31.8205  -72.0693 H         1 UNK         0.0680 
     80 H80       -75.8257   31.5177  -70.9193 H         1 UNK         0.0680 
     81 H81       -73.7899   30.2306  -71.2996 H         1 UNK         0.1032 
     82 H82       -74.1106   28.8304  -72.2917 H         1 UNK         0.1032 
     83 H83       -72.2559   31.1533  -72.9697 H         1 UNK         0.0461 
     84 H84       -69.7497   28.1502  -72.2131 H         1 UNK         0.3453 
     85 H85       -70.5459   28.3546  -73.7537 H         1 UNK         0.3453 
     86 H86       -73.0956   28.9189  -74.6677 H         1 UNK         0.2984 
     87 H87       -72.7286   29.9914  -77.1972 H         1 UNK         0.0554 
     88 H88       -70.7714   29.6034  -78.7072 H         1 UNK         0.0847 
     89 H89       -69.6792   29.7222  -77.3281 H         1 UNK         0.0847 
     90 H90       -70.6252   31.1155  -77.8284 H         1 UNK         0.0847 
     91 H91       -72.8163   27.8047  -77.1510 H         1 UNK         0.3141 
     92 H92       -70.7644   25.3645  -77.2649 H         1 UNK         0.0743 
     93 H93       -70.0502   25.0048  -74.9250 H         1 UNK         0.0784 
     94 H94       -71.6860   25.2790  -74.3442 H         1 UNK         0.0784 
     95 H95       -71.3222   23.8681  -75.3352 H         1 UNK         0.0784 
     96 H96       -73.4273   25.1761  -76.1231 H         1 UNK         0.3213 
     97 H97       -75.1584   26.2201  -79.0236 H         1 UNK         0.0855 
     98 H98       -74.8749   23.3985  -77.8750 H         1 UNK         0.0814 
     99 H99       -74.9290   23.8567  -79.5653 H         1 UNK         0.0814 
    100 H100      -76.3715   24.0241  -78.5745 H         1 UNK         0.0814 
    101 H101      -76.1411   25.3302  -76.5204 H         1 UNK         0.3105 
    102 H102      -75.6005   28.3340  -74.6670 H         1 UNK         0.0547 
    103 H103      -78.0076   28.1855  -74.3201 H         1 UNK         0.0837 
    104 H104      -77.6946   28.7743  -75.9454 H         1 UNK         0.0837 
    105 H105      -78.2044   27.1071  -75.7037 H         1 UNK         0.0837 
    106 H106      -76.8358   25.7268  -74.2228 H         1 UNK         0.3020 
    107 H107      -73.9772   24.3921  -72.5252 H         1 UNK         0.1245 
    108 H108      -75.8931   23.9360  -70.8986 H         1 UNK         0.0781 
    109 H109      -76.7400   25.3043  -71.5581 H         1 UNK         0.0781 
    110 H110      -75.8435   27.1978  -68.3911 H         1 UNK         0.0836 
    111 H111      -76.8903   25.8980  -68.9023 H         1 UNK         0.0836 
    112 H112      -76.5050   23.2596  -73.0919 H         1 UNK         0.3022 
    113 H113      -76.0275   22.1421  -76.3816 H         1 UNK         0.0747 
    114 H114      -76.4177   19.9095  -75.3913 H         1 UNK         0.0793 
    115 H115      -74.7728   20.4266  -75.0654 H         1 UNK         0.0793 
    116 H116      -75.9799   20.5068  -73.7897 H         1 UNK         0.0793 
    117 H117      -78.1122   21.5953  -74.5872 H         1 UNK         0.3047 
    118 H118      -80.1821   22.5917  -75.0390 H         1 UNK         0.0822 
    119 H119      -79.3161   23.1589  -72.7855 H         1 UNK         0.0807 
    120 H120      -80.7972   24.0566  -73.0636 H         1 UNK         0.0807 
    121 H121      -79.2367   24.8651  -73.1966 H         1 UNK         0.0807 
    122 H122      -80.7389   25.4019  -75.1804 H         1 UNK         0.2946 
    123 H123      -80.9887   25.9633  -78.4307 H         1 UNK         0.1144 
    124 H124      -82.7277   24.2606  -78.9431 H         1 UNK         0.0793 
    125 H125      -83.4739   25.8303  -78.7030 H         1 UNK         0.0793 
    126 H126      -83.5568   24.6112  -77.4317 H         1 UNK         0.0793 
    127 H127      -82.6522   26.4676  -75.9858 H         1 UNK         0.2896 
@<TRIPOS>BOND
     1    1    2 1    
     2    1   67 1    
     3    1   68 1    
     4    1   69 1    
     5    2    3 2    
     6    2    4 am   BACKBONE|DICT|INTERRES
     7    4    5 1    
     8    4   70 1    
     9    5    6 1    
    10    5   65 1    
    11    5   71 1    
    12    6    7 1    
    13    6   72 1    
    14    6   73 1    
    15    7    8 1    
    16    8    9 1    
    17    8   74 1    
    18    8   75 1    
    19    9   10 ar   
    20    9   14 ar   
    21   10   11 ar   
    22   10   76 1    
    23   11   12 ar   
    24   11   48 1    
    25   12   13 ar   
    26   12   77 1    
    27   13   14 ar   
    28   13   15 1    
    29   14   78 1    
    30   15   16 1    
    31   15   79 1    
    32   15   80 1    
    33   16   17 1    
    34   17   18 1    
    35   17   81 1    
    36   17   82 1    
    37   18   19 1    
    38   18   22 1    
    39   18   83 1    
    40   19   20 am   BACKBONE|DICT|INTERRES
    41   19   21 2    
    42   20   84 1    
    43   20   85 1    
    44   22   23 am   BACKBONE|DICT|INTERRES
    45   22   86 1    
    46   23   24 2    
    47   23   25 1    
    48   25   26 1    
    49   25   27 1    
    50   25   87 1    
    51   26   88 1    
    52   26   89 1    
    53   26   90 1    
    54   27   28 am   BACKBONE|DICT|INTERRES
    55   27   91 1    
    56   28   29 2    
    57   28   30 1    
    58   30   31 1    
    59   30   32 1    
    60   30   92 1    
    61   31   93 1    
    62   31   94 1    
    63   31   95 1    
    64   32   33 am   BACKBONE|DICT|INTERRES
    65   32   96 1    
    66   33   34 2    
    67   33   35 1    
    68   35   36 1    
    69   35   37 1    
    70   35   97 1    
    71   36   98 1    
    72   36   99 1    
    73   36  100 1    
    74   37   38 am   BACKBONE|DICT|INTERRES
    75   37  101 1    
    76   38   39 2    
    77   38   40 1    
    78   40   41 1    
    79   40   42 1    
    80   40  102 1    
    81   41  103 1    
    82   41  104 1    
    83   41  105 1    
    84   42   43 am   BACKBONE|DICT|INTERRES
    85   42  106 1    
    86   43   44 2    
    87   43   45 1    
    88   45   46 1    
    89   45   49 1    
    90   45  107 1    
    91   46   47 1    
    92   46  108 1    
    93   46  109 1    
    94   47   48 1    
    95   48  110 1    
    96   48  111 1    
    97   49   50 am   BACKBONE|DICT|INTERRES
    98   49  112 1    
    99   50   51 2    
   100   50   52 1    
   101   52   53 1    
   102   52   54 1    
   103   52  113 1    
   104   53  114 1    
   105   53  115 1    
   106   53  116 1    
   107   54   55 am   BACKBONE|DICT|INTERRES
   108   54  117 1    
   109   55   56 2    
   110   55   57 1    
   111   57   58 1    
   112   57   59 1    
   113   57  118 1    
   114   58  119 1    
   115   58  120 1    
   116   58  121 1    
   117   59   60 am   BACKBONE|DICT|INTERRES
   118   59  122 1    
   119   60   61 2    
   120   60   62 1    
   121   62   63 1    
   122   62   64 1    
   123   62  123 1    
   124   63  124 1    
   125   63  125 1    
   126   63  126 1    
   127   64   65 am   BACKBONE|DICT|INTERRES
   128   64  127 1    
   129   65   66 2    
@<TRIPOS>SUBSTRUCTURE
     1 UNK         1 GROUP             0       ****    0 ROOT    
