@<TRIPOS>MOLECULE
3R135
127   129    1
SMALL
USER_CHARGES


@<TRIPOS>ATOM
      1 CA        -82.2649   24.0165  -69.2090 C.3       0 UNK        -0.1998 
      2 C         -81.7608   24.6393  -70.5021 C.2       0 UNK         0.4909 
      3 O         -80.5646   24.5722  -70.7817 O.2       0 UNK        -0.5240 
      4 N         -82.6701   25.2371  -71.2866 N.am      1 UNK        -0.4739 
      5 CA        -82.4152   25.9217  -72.5662 C.3       1 UNK         0.0864 
      6 C6        -81.4892   27.1602  -72.4364 C.3       11 UNK        -0.0881 
      7 S7        -82.1132   28.4370  -71.2962 S.3       11 UNK        -0.2682 
      8 C8        -80.5971   28.8177  -70.3463 C.3       11 UNK         0.0289 
      9 C9        -79.4132   29.3147  -71.1827 C.ar      11 UNK        -0.0687 
     10 C10       -79.5936   30.0722  -72.3478 C.ar      11 UNK        -0.0823 
     11 C11       -78.4944   30.5262  -73.0830 C.ar      11 UNK        -0.0830 
     12 C12       -77.2063   30.2698  -72.6135 C.ar      11 UNK        -0.1021 
     13 C13       -77.0004   29.4726  -71.4851 C.ar      11 UNK        -0.0753 
     14 C14       -78.1105   29.0106  -70.7687 C.ar      11 UNK        -0.0933 
     15 C15       -75.5889   29.0940  -71.0410 C.3       11 UNK         0.0166 
     16 S16       -74.5218   28.5625  -72.4305 S.3       11 UNK        -0.2615 
     17 C17       -73.6226   30.1063  -72.8428 C.3       11 UNK        -0.0865 
     18 CA        -72.1010   29.9185  -73.0845 C.3       10 UNK         0.0862 
     19 C         -71.3666   29.3128  -71.8483 C.2       10 UNK         0.5551 
     20 N         -70.7876   28.1196  -71.9306 N.am      10 UNK        -0.7319 
     21 O         -71.3145   29.9491  -70.7984 O.2       10 UNK        -0.5018 
     22 N         -71.8371   29.2486  -74.3676 N.am      10 UNK        -0.4509 
     23 C         -70.6460   29.2224  -74.9833 C.2       10 UNK         0.4899 
     24 O         -69.6715   29.8740  -74.6037 O.2       10 UNK        -0.4839 
     25 CA        -70.5154   28.3103  -76.2227 C.3       9 UNK         0.0222 
     26 CB        -69.0628   27.8532  -76.4712 C.3       9 UNK        -0.1966 
     27 N         -71.4175   27.1523  -76.2010 N.am      9 UNK        -0.4218 
     28 C         -71.5229   26.2067  -75.2530 C.2       9 UNK         0.5020 
     29 O         -70.7970   26.1545  -74.2584 O.2       9 UNK        -0.5274 
     30 CA        -72.6529   25.1719  -75.4081 C.3       8 UNK         0.0270 
     31 CB        -73.5815   25.1949  -74.1831 C.3       8 UNK        -0.1976 
     32 N         -73.4599   25.4089  -76.6089 N.am      8 UNK        -0.4313 
     33 C         -73.3707   24.7079  -77.7470 C.2       8 UNK         0.5041 
     34 O         -72.6394   23.7279  -77.8945 O.2       8 UNK        -0.5577 
     35 CA        -74.2116   25.1985  -78.9409 C.3       7 UNK         0.0284 
     36 CB        -75.5282   24.4125  -79.0425 C.3       7 UNK        -0.1958 
     37 N         -74.4959   26.6378  -78.9000 N.am      7 UNK        -0.4454 
     38 C         -73.5704   27.5916  -79.0862 C.2       7 UNK         0.5089 
     39 O         -72.3861   27.3530  -79.3190 O.2       7 UNK        -0.5125 
     40 CA        -74.0169   29.0584  -78.9420 C.3       6 UNK         0.0408 
     41 CB        -74.3847   29.6428  -80.3145 C.3       6 UNK        -0.1791 
     42 N         -75.1323   29.2608  -78.0121 N.am      6 UNK        -0.4762 
     43 C         -75.1113   28.9545  -76.7071 C.2       6 UNK         0.5007 
     44 O         -74.1356   28.4479  -76.1473 O.2       6 UNK        -0.5032 
     45 CA        -76.3838   29.2214  -75.8771 C.3       5 UNK         0.0783 
     46 C46       -77.5637   29.8637  -76.6665 C.3       11 UNK        -0.0857 
     47 S47       -79.1226   30.0814  -75.7304 S.3       11 UNK        -0.2512 
     48 C48       -78.7029   31.2593  -74.4009 C.3       11 UNK         0.0225 
     49 N         -76.7470   28.0134  -75.1321 N.am      5 UNK        -0.4615 
     50 C         -77.1064   26.8339  -75.6523 C.2       4 UNK         0.5053 
     51 O         -77.1758   26.6153  -76.8645 O.2       4 UNK        -0.5105 
     52 CA        -77.4273   25.7221  -74.6372 C.3       4 UNK         0.0263 
     53 CB        -78.1914   26.2619  -73.4188 C.3       4 UNK        -0.1981 
     54 N         -78.2192   24.6621  -75.2605 N.am      4 UNK        -0.4224 
     55 C         -77.7110   23.5372  -75.7816 C.2       3 UNK         0.4895 
     56 O         -76.5148   23.2449  -75.7334 O.2       3 UNK        -0.5091 
     57 CA        -78.6941   22.5851  -76.4972 C.3       3 UNK         0.0250 
     58 CB        -78.2100   21.1186  -76.4967 C.3       3 UNK        -0.1996 
     59 N         -80.0823   22.6774  -76.0215 N.am      3 UNK        -0.4254 
     60 C         -80.5403   22.4155  -74.7877 C.2       2 UNK         0.5004 
     61 O         -79.8412   22.0326  -73.8475 O.2       2 UNK        -0.5226 
     62 CA        -82.0500   22.6249  -74.5702 C.3       2 UNK         0.0269 
     63 CB        -82.7275   21.3191  -74.1203 C.3       2 UNK        -0.1926 
     64 N         -82.3330   23.6771  -73.5902 N.am      2 UNK        -0.4687 
     65 C         -81.9575   24.9615  -73.6936 C.2       1 UNK         0.5165 
     66 O         -81.3119   25.3966  -74.6507 O.2       1 UNK        -0.5079 
     67 H67       -83.3400   24.1457  -69.0844 H         1 UNK         0.0900 
     68 H68       -82.0476   22.9487  -69.1973 H         1 UNK         0.0900 
     69 H69       -81.7676   24.4749  -68.3546 H         1 UNK         0.0900 
     70 H70       -83.6348   25.2533  -70.9847 H         1 UNK         0.2959 
     71 H71       -83.3868   26.2886  -72.9009 H         1 UNK         0.1079 
     72 H72       -80.5066   26.8431  -72.0930 H         1 UNK         0.0837 
     73 H73       -81.3393   27.6438  -73.4036 H         1 UNK         0.0837 
     74 H74       -80.8366   29.5780  -69.6022 H         1 UNK         0.0685 
     75 H75       -80.3139   27.9212  -69.7918 H         1 UNK         0.0685 
     76 H76       -80.5904   30.2966  -72.7006 H         1 UNK         0.1434 
     77 H77       -76.3569   30.6651  -73.1454 H         1 UNK         0.1329 
     78 H78       -77.9602   28.4094  -69.8823 H         1 UNK         0.1335 
     79 H79       -75.1394   29.9263  -70.4990 H         1 UNK         0.0680 
     80 H80       -75.6354   28.2649  -70.3334 H         1 UNK         0.0680 
     81 H81       -74.0767   30.5484  -73.7297 H         1 UNK         0.1032 
     82 H82       -73.7696   30.8402  -72.0491 H         1 UNK         0.1032 
     83 H83       -71.6879   30.9236  -73.1903 H         1 UNK         0.0461 
     84 H84       -70.8297   27.5785  -72.7873 H         1 UNK         0.3453 
     85 H85       -70.3143   27.7450  -71.1245 H         1 UNK         0.3453 
     86 H86       -72.6039   28.7179  -74.7662 H         1 UNK         0.2984 
     87 H87       -70.8243   28.9154  -77.0761 H         1 UNK         0.0554 
     88 H88       -68.9910   27.2272  -77.3605 H         1 UNK         0.0847 
     89 H89       -68.6692   27.2849  -75.6277 H         1 UNK         0.0847 
     90 H90       -68.4020   28.7071  -76.6252 H         1 UNK         0.0847 
     91 H91       -72.0679   27.1059  -76.9733 H         1 UNK         0.3141 
     92 H92       -72.1789   24.1895  -75.4544 H         1 UNK         0.0743 
     93 H93       -74.1180   26.1405  -74.1051 H         1 UNK         0.0784 
     94 H94       -74.3147   24.3903  -74.2357 H         1 UNK         0.0784 
     95 H95       -73.0231   25.0582  -73.2560 H         1 UNK         0.0784 
     96 H96       -74.0725   26.2151  -76.5839 H         1 UNK         0.3213 
     97 H97       -73.6327   24.9987  -79.8455 H         1 UNK         0.0855 
     98 H98       -76.1629   24.5761  -78.1727 H         1 UNK         0.0814 
     99 H99       -75.3381   23.3402  -79.1058 H         1 UNK         0.0814 
    100 H100      -76.0940   24.6949  -79.9303 H         1 UNK         0.0814 
    101 H101      -75.4428   26.9133  -78.6726 H         1 UNK         0.3105 
    102 H102      -73.1640   29.6186  -78.5528 H         1 UNK         0.0547 
    103 H103      -73.5604   29.5295  -81.0203 H         1 UNK         0.0837 
    104 H104      -75.2535   29.1451  -80.7471 H         1 UNK         0.0837 
    105 H105      -74.6049   30.7083  -80.2478 H         1 UNK         0.0837 
    106 H106      -75.9760   29.6544  -78.4033 H         1 UNK         0.3020 
    107 H107      -76.0586   29.9522  -75.1432 H         1 UNK         0.1245 
    108 H108      -77.8159   29.2494  -77.5328 H         1 UNK         0.0781 
    109 H109      -77.2726   30.8405  -77.0574 H         1 UNK         0.0781 
    110 H110      -79.5208   31.9729  -74.2913 H         1 UNK         0.0836 
    111 H111      -77.8236   31.8443  -74.6744 H         1 UNK         0.0836 
    112 H112      -76.6919   28.0969  -74.1267 H         1 UNK         0.3022 
    113 H113      -76.4821   25.3122  -74.2814 H         1 UNK         0.0747 
    114 H114      -78.6208   25.4558  -72.8226 H         1 UNK         0.0793 
    115 H115      -77.5370   26.8315  -72.7587 H         1 UNK         0.0793 
    116 H116      -78.9986   26.9232  -73.7331 H         1 UNK         0.0793 
    117 H117      -79.2121   24.8400  -75.3519 H         1 UNK         0.3047 
    118 H118      -78.7126   22.9184  -77.5360 H         1 UNK         0.0822 
    119 H119      -78.0953   20.7313  -75.4839 H         1 UNK         0.0807 
    120 H120      -77.2421   21.0248  -76.9909 H         1 UNK         0.0807 
    121 H121      -78.9061   20.4697  -77.0281 H         1 UNK         0.0807 
    122 H122      -80.7454   23.0109  -76.7082 H         1 UNK         0.2946 
    123 H123      -82.5037   22.9293  -75.5160 H         1 UNK         0.1144 
    124 H124      -82.5422   20.5172  -74.8363 H         1 UNK         0.0793 
    125 H125      -83.8083   21.4377  -74.0411 H         1 UNK         0.0793 
    126 H126      -82.3540   20.9833  -73.1519 H         1 UNK         0.0793 
    127 H127      -82.8321   23.3997  -72.7578 H         1 UNK         0.2896 
@<TRIPOS>BOND
     1    1    2 1    
     2    1   67 1    
     3    1   68 1    
     4    1   69 1    
     5    2    3 2    
     6    2    4 am   BACKBONE|DICT|INTERRES
     7    4    5 1    
     8    4   70 1    
     9    5    6 1    
    10    5   65 1    
    11    5   71 1    
    12    6    7 1    
    13    6   72 1    
    14    6   73 1    
    15    7    8 1    
    16    8    9 1    
    17    8   74 1    
    18    8   75 1    
    19    9   10 ar   
    20    9   14 ar   
    21   10   11 ar   
    22   10   76 1    
    23   11   12 ar   
    24   11   48 1    
    25   12   13 ar   
    26   12   77 1    
    27   13   14 ar   
    28   13   15 1    
    29   14   78 1    
    30   15   16 1    
    31   15   79 1    
    32   15   80 1    
    33   16   17 1    
    34   17   18 1    
    35   17   81 1    
    36   17   82 1    
    37   18   19 1    
    38   18   22 1    
    39   18   83 1    
    40   19   20 am   BACKBONE|DICT|INTERRES
    41   19   21 2    
    42   20   84 1    
    43   20   85 1    
    44   22   23 am   BACKBONE|DICT|INTERRES
    45   22   86 1    
    46   23   24 2    
    47   23   25 1    
    48   25   26 1    
    49   25   27 1    
    50   25   87 1    
    51   26   88 1    
    52   26   89 1    
    53   26   90 1    
    54   27   28 am   BACKBONE|DICT|INTERRES
    55   27   91 1    
    56   28   29 2    
    57   28   30 1    
    58   30   31 1    
    59   30   32 1    
    60   30   92 1    
    61   31   93 1    
    62   31   94 1    
    63   31   95 1    
    64   32   33 am   BACKBONE|DICT|INTERRES
    65   32   96 1    
    66   33   34 2    
    67   33   35 1    
    68   35   36 1    
    69   35   37 1    
    70   35   97 1    
    71   36   98 1    
    72   36   99 1    
    73   36  100 1    
    74   37   38 am   BACKBONE|DICT|INTERRES
    75   37  101 1    
    76   38   39 2    
    77   38   40 1    
    78   40   41 1    
    79   40   42 1    
    80   40  102 1    
    81   41  103 1    
    82   41  104 1    
    83   41  105 1    
    84   42   43 am   BACKBONE|DICT|INTERRES
    85   42  106 1    
    86   43   44 2    
    87   43   45 1    
    88   45   46 1    
    89   45   49 1    
    90   45  107 1    
    91   46   47 1    
    92   46  108 1    
    93   46  109 1    
    94   47   48 1    
    95   48  110 1    
    96   48  111 1    
    97   49   50 am   BACKBONE|DICT|INTERRES
    98   49  112 1    
    99   50   51 2    
   100   50   52 1    
   101   52   53 1    
   102   52   54 1    
   103   52  113 1    
   104   53  114 1    
   105   53  115 1    
   106   53  116 1    
   107   54   55 am   BACKBONE|DICT|INTERRES
   108   54  117 1    
   109   55   56 2    
   110   55   57 1    
   111   57   58 1    
   112   57   59 1    
   113   57  118 1    
   114   58  119 1    
   115   58  120 1    
   116   58  121 1    
   117   59   60 am   BACKBONE|DICT|INTERRES
   118   59  122 1    
   119   60   61 2    
   120   60   62 1    
   121   62   63 1    
   122   62   64 1    
   123   62  123 1    
   124   63  124 1    
   125   63  125 1    
   126   63  126 1    
   127   64   65 am   BACKBONE|DICT|INTERRES
   128   64  127 1    
   129   65   66 2    
@<TRIPOS>SUBSTRUCTURE
     1 UNK         1 GROUP             0       ****    0 ROOT    
