@<TRIPOS>MOLECULE
3R135
127   129    1
SMALL
USER_CHARGES


@<TRIPOS>ATOM
      1 CA        -82.7583   23.8856  -71.3988 C.3       0 UNK        -0.1998 
      2 C         -82.7103   24.8503  -72.5732 C.2       0 UNK         0.4909 
      3 O         -83.0081   24.4558  -73.7013 O.2       0 UNK        -0.5240 
      4 N         -82.3331   26.1108  -72.3182 N.am      1 UNK        -0.4739 
      5 CA        -82.1606   27.1721  -73.3178 C.3       1 UNK         0.0864 
      6 C6        -81.8457   28.5726  -72.6963 C.3       11 UNK        -0.0881 
      7 S7        -81.2414   28.6266  -70.9631 S.3       11 UNK        -0.2682 
      8 C8        -79.5552   27.9441  -71.0502 C.3       11 UNK         0.0289 
      9 C9        -78.5196   28.9368  -71.5590 C.ar      11 UNK        -0.0687 
     10 C10       -78.3368   29.1148  -72.9311 C.ar      11 UNK        -0.0823 
     11 C11       -77.3270   29.9470  -73.4198 C.ar      11 UNK        -0.0830 
     12 C12       -76.5052   30.6259  -72.5167 C.ar      11 UNK        -0.1021 
     13 C13       -76.6824   30.4670  -71.1381 C.ar      11 UNK        -0.0753 
     14 C14       -77.6947   29.6258  -70.6643 C.ar      11 UNK        -0.0933 
     15 C15       -75.7689   31.1954  -70.1627 C.3       11 UNK         0.0166 
     16 S16       -74.5428   30.0880  -69.3891 S.3       11 UNK        -0.2615 
     17 C17       -73.6172   29.4546  -70.8312 C.3       11 UNK        -0.0865 
     18 CA        -72.5525   30.4560  -71.3757 C.3       10 UNK         0.0862 
     19 C         -71.1551   30.3098  -70.6955 C.2       10 UNK         0.5551 
     20 N         -70.0528   30.5127  -71.4073 N.am      10 UNK        -0.7319 
     21 O         -71.0625   30.0389  -69.5009 O.2       10 UNK        -0.5018 
     22 N         -72.5252   30.4965  -72.8499 N.am      10 UNK        -0.4509 
     23 C         -72.2540   29.4623  -73.6575 C.2       10 UNK         0.4899 
     24 O         -72.0137   28.3239  -73.2497 O.2       10 UNK        -0.4839 
     25 CA        -72.2983   29.7648  -75.1693 C.3       9 UNK         0.0222 
     26 CB        -71.3509   30.9187  -75.5688 C.3       9 UNK        -0.1966 
     27 N         -72.0741   28.5711  -75.9971 N.am      9 UNK        -0.4218 
     28 C         -70.9348   27.8795  -76.1663 C.2       9 UNK         0.5020 
     29 O         -69.8436   28.2133  -75.7011 O.2       9 UNK        -0.5274 
     30 CA        -71.0132   26.5857  -76.9975 C.3       8 UNK         0.0270 
     31 CB        -70.8644   25.3535  -76.0885 C.3       8 UNK        -0.1976 
     32 N         -72.2610   26.4677  -77.7586 N.am      8 UNK        -0.4313 
     33 C         -72.4419   26.9370  -79.0024 C.2       8 UNK         0.5041 
     34 O         -71.5647   27.5370  -79.6262 O.2       8 UNK        -0.5577 
     35 CA        -73.8248   26.7360  -79.6652 C.3       7 UNK         0.0284 
     36 CB        -73.7093   26.4010  -81.1678 C.3       7 UNK        -0.1958 
     37 N         -74.6979   25.7746  -78.9778 N.am      7 UNK        -0.4454 
     38 C         -74.4982   24.4603  -78.7907 C.2       7 UNK         0.5089 
     39 O         -73.5611   23.8303  -79.2825 O.2       7 UNK        -0.5125 
     40 CA        -75.4999   23.7451  -77.8560 C.3       6 UNK         0.0408 
     41 CB        -74.8827   22.5082  -77.1721 C.3       6 UNK        -0.1791 
     42 N         -76.1100   24.6213  -76.8440 N.am      6 UNK        -0.4762 
     43 C         -75.4757   25.3875  -75.9389 C.2       6 UNK         0.5007 
     44 O         -74.2526   25.5124  -75.8767 O.2       6 UNK        -0.5032 
     45 CA        -76.3739   26.1686  -74.9628 C.3       5 UNK         0.0783 
     46 C46       -77.0178   27.3840  -75.6809 C.3       11 UNK        -0.0857 
     47 S47       -75.9749   28.8768  -75.6026 S.3       11 UNK        -0.2512 
     48 C48       -77.1252   30.1159  -74.9194 C.3       11 UNK         0.0225 
     49 N         -77.3787   25.2997  -74.3415 N.am      5 UNK        -0.4615 
     50 C         -77.1199   24.2369  -73.5648 C.2       4 UNK         0.5053 
     51 O         -75.9905   23.9125  -73.1988 O.2       4 UNK        -0.5105 
     52 CA        -78.3196   23.3740  -73.1374 C.3       4 UNK         0.0263 
     53 CB        -78.8972   23.8459  -71.7943 C.3       4 UNK        -0.1981 
     54 N         -79.3740   23.3722  -74.1531 N.am      4 UNK        -0.4224 
     55 C         -79.3828   22.5698  -75.2270 C.2       3 UNK         0.4895 
     56 O         -78.5608   21.6741  -75.4215 O.2       3 UNK        -0.5091 
     57 CA        -80.4846   22.8126  -76.2736 C.3       3 UNK         0.0250 
     58 CB        -81.7214   21.9540  -75.9648 C.3       3 UNK        -0.1996 
     59 N         -80.8787   24.2202  -76.3815 N.am      3 UNK        -0.4254 
     60 C         -80.0939   25.1876  -76.8791 C.2       2 UNK         0.5004 
     61 O         -78.9593   24.9917  -77.3168 O.2       2 UNK        -0.5226 
     62 CA        -80.6430   26.6268  -76.8399 C.3       2 UNK         0.0269 
     63 CB        -81.4204   26.9350  -78.1290 C.3       2 UNK        -0.1926 
     64 N         -81.4872   26.9346  -75.6765 N.am      2 UNK        -0.4687 
     65 C         -81.1299   26.7702  -74.3945 C.2       1 UNK         0.5165 
     66 O         -80.0418   26.3051  -74.0520 O.2       1 UNK        -0.5079 
     67 H67       -83.7886   23.5971  -71.1933 H         1 UNK         0.0900 
     68 H68       -82.3387   24.3249  -70.4940 H         1 UNK         0.0900 
     69 H69       -82.1923   22.9841  -71.6314 H         1 UNK         0.0900 
     70 H70       -82.0947   26.3827  -71.3746 H         1 UNK         0.2959 
     71 H71       -83.1241   27.2541  -73.8261 H         1 UNK         0.1079 
     72 H72       -81.1796   29.1663  -73.3240 H         1 UNK         0.0837 
     73 H73       -82.7737   29.1466  -72.6896 H         1 UNK         0.0837 
     74 H74       -79.2750   27.6031  -70.0525 H         1 UNK         0.0685 
     75 H75       -79.5501   27.0544  -71.6743 H         1 UNK         0.0685 
     76 H76       -78.9771   28.5881  -73.6180 H         1 UNK         0.1434 
     77 H77       -75.7182   31.2682  -72.8876 H         1 UNK         0.1329 
     78 H78       -77.8208   29.4889  -69.5989 H         1 UNK         0.1335 
     79 H79       -75.2492   32.0155  -70.6602 H         1 UNK         0.0680 
     80 H80       -76.3730   31.6525  -69.3776 H         1 UNK         0.0680 
     81 H81       -73.1521   28.5056  -70.5581 H         1 UNK         0.1032 
     82 H82       -74.3358   29.1883  -71.6059 H         1 UNK         0.1032 
     83 H83       -72.8727   31.4619  -71.1036 H         1 UNK         0.0461 
     84 H84       -69.1533   30.4268  -70.9609 H         1 UNK         0.3453 
     85 H85       -70.1124   30.7363  -72.3873 H         1 UNK         0.3453 
     86 H86       -72.7049   31.4008  -73.2618 H         1 UNK         0.2984 
     87 H87       -73.3150   30.0890  -75.3907 H         1 UNK         0.0554 
     88 H88       -71.6679   31.8648  -75.1296 H         1 UNK         0.0847 
     89 H89       -71.3352   31.0614  -76.6493 H         1 UNK         0.0847 
     90 H90       -70.3264   30.7396  -75.2417 H         1 UNK         0.0847 
     91 H91       -72.9092   28.1661  -76.3946 H         1 UNK         0.3141 
     92 H92       -70.1690   26.5917  -77.6904 H         1 UNK         0.0743 
     93 H93       -71.6423   25.3179  -75.3250 H         1 UNK         0.0784 
     94 H94       -70.9129   24.4276  -76.6619 H         1 UNK         0.0784 
     95 H95       -69.9041   25.3654  -75.5712 H         1 UNK         0.0784 
     96 H96       -73.0306   26.0024  -77.2824 H         1 UNK         0.3213 
     97 H97       -74.3281   27.7009  -79.5858 H         1 UNK         0.0855 
     98 H98       -73.2004   27.1993  -81.7095 H         1 UNK         0.0814 
     99 H99       -74.6912   26.2784  -81.6246 H         1 UNK         0.0814 
    100 H100      -73.1427   25.4850  -81.3372 H         1 UNK         0.0814 
    101 H101      -75.5082   26.1735  -78.5247 H         1 UNK         0.3105 
    102 H102      -76.3170   23.4014  -78.4918 H         1 UNK         0.0547 
    103 H103      -74.5426   21.7786  -77.9080 H         1 UNK         0.0837 
    104 H104      -74.0234   22.7758  -76.5561 H         1 UNK         0.0837 
    105 H105      -75.6097   22.0063  -76.5331 H         1 UNK         0.0837 
    106 H106      -77.1284   24.6472  -76.8555 H         1 UNK         0.3020 
    107 H107      -75.7388   26.5288  -74.1497 H         1 UNK         0.1245 
    108 H108      -77.9825   27.6102  -75.2376 H         1 UNK         0.0781 
    109 H109      -77.2450   27.1760  -76.7282 H         1 UNK         0.0781 
    110 H110      -78.0810   30.0633  -75.4433 H         1 UNK         0.0836 
    111 H111      -76.7263   31.1103  -75.1259 H         1 UNK         0.0836 
    112 H112      -78.3508   25.5450  -74.4997 H         1 UNK         0.3022 
    113 H113      -77.9536   22.3541  -72.9998 H         1 UNK         0.0747 
    114 H114      -79.6421   23.1444  -71.4194 H         1 UNK         0.0793 
    115 H115      -78.1166   23.9241  -71.0363 H         1 UNK         0.0793 
    116 H116      -79.3720   24.8213  -71.8788 H         1 UNK         0.0793 
    117 H117      -80.0570   24.1174  -74.0987 H         1 UNK         0.3047 
    118 H118      -80.0884   22.5012  -77.2427 H         1 UNK         0.0822 
    119 H119      -82.4857   22.0667  -76.7339 H         1 UNK         0.0807 
    120 H120      -82.1683   22.2174  -75.0056 H         1 UNK         0.0807 
    121 H121      -81.4598   20.8957  -75.9219 H         1 UNK         0.0807 
    122 H122      -81.7825   24.4737  -76.0046 H         1 UNK         0.2946 
    123 H123      -79.7828   27.2965  -76.8015 H         1 UNK         0.1144 
    124 H124      -80.8095   26.7354  -79.0108 H         1 UNK         0.0793 
    125 H125      -81.7159   27.9834  -78.1745 H         1 UNK         0.0793 
    126 H126      -82.3220   26.3268  -78.2128 H         1 UNK         0.0793 
    127 H127      -82.4036   27.3079  -75.8802 H         1 UNK         0.2896 
@<TRIPOS>BOND
     1    1    2 1    
     2    1   67 1    
     3    1   68 1    
     4    1   69 1    
     5    2    3 2    
     6    2    4 am   BACKBONE|DICT|INTERRES
     7    4    5 1    
     8    4   70 1    
     9    5    6 1    
    10    5   65 1    
    11    5   71 1    
    12    6    7 1    
    13    6   72 1    
    14    6   73 1    
    15    7    8 1    
    16    8    9 1    
    17    8   74 1    
    18    8   75 1    
    19    9   10 ar   
    20    9   14 ar   
    21   10   11 ar   
    22   10   76 1    
    23   11   12 ar   
    24   11   48 1    
    25   12   13 ar   
    26   12   77 1    
    27   13   14 ar   
    28   13   15 1    
    29   14   78 1    
    30   15   16 1    
    31   15   79 1    
    32   15   80 1    
    33   16   17 1    
    34   17   18 1    
    35   17   81 1    
    36   17   82 1    
    37   18   19 1    
    38   18   22 1    
    39   18   83 1    
    40   19   20 am   BACKBONE|DICT|INTERRES
    41   19   21 2    
    42   20   84 1    
    43   20   85 1    
    44   22   23 am   BACKBONE|DICT|INTERRES
    45   22   86 1    
    46   23   24 2    
    47   23   25 1    
    48   25   26 1    
    49   25   27 1    
    50   25   87 1    
    51   26   88 1    
    52   26   89 1    
    53   26   90 1    
    54   27   28 am   BACKBONE|DICT|INTERRES
    55   27   91 1    
    56   28   29 2    
    57   28   30 1    
    58   30   31 1    
    59   30   32 1    
    60   30   92 1    
    61   31   93 1    
    62   31   94 1    
    63   31   95 1    
    64   32   33 am   BACKBONE|DICT|INTERRES
    65   32   96 1    
    66   33   34 2    
    67   33   35 1    
    68   35   36 1    
    69   35   37 1    
    70   35   97 1    
    71   36   98 1    
    72   36   99 1    
    73   36  100 1    
    74   37   38 am   BACKBONE|DICT|INTERRES
    75   37  101 1    
    76   38   39 2    
    77   38   40 1    
    78   40   41 1    
    79   40   42 1    
    80   40  102 1    
    81   41  103 1    
    82   41  104 1    
    83   41  105 1    
    84   42   43 am   BACKBONE|DICT|INTERRES
    85   42  106 1    
    86   43   44 2    
    87   43   45 1    
    88   45   46 1    
    89   45   49 1    
    90   45  107 1    
    91   46   47 1    
    92   46  108 1    
    93   46  109 1    
    94   47   48 1    
    95   48  110 1    
    96   48  111 1    
    97   49   50 am   BACKBONE|DICT|INTERRES
    98   49  112 1    
    99   50   51 2    
   100   50   52 1    
   101   52   53 1    
   102   52   54 1    
   103   52  113 1    
   104   53  114 1    
   105   53  115 1    
   106   53  116 1    
   107   54   55 am   BACKBONE|DICT|INTERRES
   108   54  117 1    
   109   55   56 2    
   110   55   57 1    
   111   57   58 1    
   112   57   59 1    
   113   57  118 1    
   114   58  119 1    
   115   58  120 1    
   116   58  121 1    
   117   59   60 am   BACKBONE|DICT|INTERRES
   118   59  122 1    
   119   60   61 2    
   120   60   62 1    
   121   62   63 1    
   122   62   64 1    
   123   62  123 1    
   124   63  124 1    
   125   63  125 1    
   126   63  126 1    
   127   64   65 am   BACKBONE|DICT|INTERRES
   128   64  127 1    
   129   65   66 2    
@<TRIPOS>SUBSTRUCTURE
     1 UNK         1 GROUP             0       ****    0 ROOT    
