@<TRIPOS>MOLECULE
3R135
127   129    1
SMALL
USER_CHARGES


@<TRIPOS>ATOM
      1 CA        -80.0095   26.9899  -77.9914 C.3       0 UNK        -0.1998 
      2 C         -79.9202   27.3235  -76.5105 C.2       0 UNK         0.4909 
      3 O         -78.8598   27.7367  -76.0467 O.2       0 UNK        -0.5240 
      4 N         -81.0175   27.1358  -75.7726 N.am      1 UNK        -0.4739 
      5 CA        -81.1181   27.2959  -74.3234 C.3       1 UNK         0.0864 
      6 C6        -81.7843   28.6543  -73.9638 C.3       11 UNK        -0.0881 
      7 S7        -82.3160   28.8591  -72.2243 S.3       11 UNK        -0.2682 
      8 C8        -81.1198   30.0792  -71.5747 C.3       11 UNK         0.0289 
      9 C9        -79.7001   29.5529  -71.3591 C.ar      11 UNK        -0.0687 
     10 C10       -79.4379   28.1985  -71.1093 C.ar      11 UNK        -0.0823 
     11 C11       -78.1280   27.7479  -70.9323 C.ar      11 UNK        -0.0830 
     12 C12       -77.0825   28.6722  -70.9151 C.ar      11 UNK        -0.1021 
     13 C13       -77.3211   30.0217  -71.1700 C.ar      11 UNK        -0.0753 
     14 C14       -78.6311   30.4575  -71.3922 C.ar      11 UNK        -0.0933 
     15 C15       -76.1474   30.9861  -71.2186 C.3       11 UNK         0.0166 
     16 S16       -75.1951   30.7856  -72.7640 S.3       11 UNK        -0.2615 
     17 C17       -73.4686   30.8798  -72.1610 C.3       11 UNK        -0.0865 
     18 CA        -72.6355   29.5888  -72.3979 C.3       10 UNK         0.0862 
     19 C         -73.1677   28.3439  -71.6346 C.2       10 UNK         0.5551 
     20 N         -73.3708   27.2016  -72.2798 N.am      10 UNK        -0.7319 
     21 O         -73.3675   28.4064  -70.4243 O.2       10 UNK        -0.5018 
     22 N         -72.3560   29.3573  -73.8247 N.am      10 UNK        -0.4509 
     23 C         -71.3057   29.8656  -74.4807 C.2       10 UNK         0.4899 
     24 O         -70.4617   30.5966  -73.9582 O.2       10 UNK        -0.4839 
     25 CA        -71.1865   29.5062  -75.9731 C.3       9 UNK         0.0222 
     26 CB        -69.8520   29.9556  -76.6057 C.3       9 UNK        -0.1966 
     27 N         -71.4422   28.0886  -76.2425 N.am      9 UNK        -0.4218 
     28 C         -70.7528   27.0166  -75.8214 C.2       9 UNK         0.5020 
     29 O         -69.7450   27.0799  -75.1162 O.2       9 UNK        -0.5274 
     30 CA        -71.2708   25.6276  -76.2581 C.3       8 UNK         0.0270 
     31 CB        -71.7842   24.8262  -75.0496 C.3       8 UNK        -0.1976 
     32 N         -72.3295   25.6879  -77.2718 N.am      8 UNK        -0.4313 
     33 C         -72.1405   25.9997  -78.5622 C.2       8 UNK         0.5041 
     34 O         -71.0324   26.1482  -79.0779 O.2       8 UNK        -0.5577 
     35 CA        -73.4054   26.2457  -79.4013 C.3       7 UNK         0.0284 
     36 CB        -73.9396   24.9286  -79.9839 C.3       7 UNK        -0.1958 
     37 N         -74.4516   26.9182  -78.6216 N.am      7 UNK        -0.4454 
     38 C         -74.4035   28.2100  -78.2610 C.2       7 UNK         0.5089 
     39 O         -73.5057   28.9784  -78.6026 O.2       7 UNK        -0.5125 
     40 CA        -75.5134   28.7299  -77.3313 C.3       6 UNK         0.0408 
     41 CB        -76.6844   29.2875  -78.1545 C.3       6 UNK        -0.1791 
     42 N         -76.0121   27.7183  -76.3985 N.am      6 UNK        -0.4762 
     43 C         -75.2971   27.1565  -75.4140 C.2       6 UNK         0.5007 
     44 O         -74.1338   27.4620  -75.1487 O.2       6 UNK        -0.5032 
     45 CA        -75.9887   26.0371  -74.6141 C.3       5 UNK         0.0783 
     46 C46       -76.8331   26.6532  -73.4782 C.3       11 UNK        -0.0857 
     47 S47       -77.8135   25.4674  -72.4878 S.3       11 UNK        -0.2512 
     48 C48       -77.8192   26.2596  -70.8378 C.3       11 UNK         0.0225 
     49 N         -76.7499   25.1293  -75.4755 N.am      5 UNK        -0.4615 
     50 C         -76.2241   24.3322  -76.4139 C.2       4 UNK         0.5053 
     51 O         -75.0331   24.3656  -76.7309 O.2       4 UNK        -0.5105 
     52 CA        -77.1821   23.3236  -77.0889 C.3       4 UNK         0.0263 
     53 CB        -76.4456   22.3134  -77.9875 C.3       4 UNK        -0.1981 
     54 N         -77.9851   22.5818  -76.1076 N.am      4 UNK        -0.4224 
     55 C         -79.0591   23.0725  -75.4775 C.2       3 UNK         0.4895 
     56 O         -79.5082   24.1963  -75.7127 O.2       3 UNK        -0.5091 
     57 CA        -79.7041   22.2195  -74.3725 C.3       3 UNK         0.0250 
     58 CB        -78.7005   21.3293  -73.6123 C.3       3 UNK        -0.1996 
     59 N         -80.3284   23.1512  -73.4424 N.am      3 UNK        -0.4254 
     60 C         -81.5115   23.0250  -72.8369 C.2       2 UNK         0.5004 
     61 O         -82.1969   22.0023  -72.8589 O.2       2 UNK        -0.5226 
     62 CA        -82.0187   24.2756  -72.0944 C.3       2 UNK         0.0269 
     63 CB        -81.6469   24.2050  -70.6046 C.3       2 UNK        -0.1926 
     64 N         -81.4812   25.5184  -72.6637 N.am      2 UNK        -0.4687 
     65 C         -81.8910   26.0611  -73.8192 C.2       1 UNK         0.5165 
     66 O         -82.8332   25.6194  -74.4843 O.2       1 UNK        -0.5079 
     67 H67       -79.7788   27.8709  -78.5894 H         1 UNK         0.0900 
     68 H68       -81.0027   26.6389  -78.2704 H         1 UNK         0.0900 
     69 H69       -79.2921   26.2082  -78.2397 H         1 UNK         0.0900 
     70 H70       -81.8387   26.7153  -76.1892 H         1 UNK         0.2959 
     71 H71       -80.1185   27.2686  -73.8835 H         1 UNK         0.1079 
     72 H72       -81.1080   29.4675  -74.2320 H         1 UNK         0.0837 
     73 H73       -82.6734   28.8000  -74.5800 H         1 UNK         0.0837 
     74 H74       -81.4928   30.4426  -70.6165 H         1 UNK         0.0685 
     75 H75       -81.1051   30.9407  -72.2442 H         1 UNK         0.0685 
     76 H76       -80.2469   27.4858  -71.0750 H         1 UNK         0.1434 
     77 H77       -76.0667   28.3336  -70.7646 H         1 UNK         0.1329 
     78 H78       -78.8186   31.5044  -71.5886 H         1 UNK         0.1335 
     79 H79       -75.5176   30.8027  -70.3473 H         1 UNK         0.0680 
     80 H80       -76.4880   32.0196  -71.1400 H         1 UNK         0.0680 
     81 H81       -73.4493   31.1403  -71.1020 H         1 UNK         0.1032 
     82 H82       -72.9862   31.7200  -72.6624 H         1 UNK         0.1032 
     83 H83       -71.6721   29.7603  -71.9136 H         1 UNK         0.0461 
     84 H84       -73.6785   26.3973  -71.7582 H         1 UNK         0.3453 
     85 H85       -73.2482   27.1467  -73.2799 H         1 UNK         0.3453 
     86 H86       -73.0169   28.7670  -74.3224 H         1 UNK         0.2984 
     87 H87       -71.9844   30.0544  -76.4756 H         1 UNK         0.0554 
     88 H88       -69.8151   29.7105  -77.6672 H         1 UNK         0.0847 
     89 H89       -68.9947   29.4859  -76.1224 H         1 UNK         0.0847 
     90 H90       -69.7222   31.0350  -76.5188 H         1 UNK         0.0847 
     91 H91       -72.2757   27.9041  -76.7833 H         1 UNK         0.3141 
     92 H92       -70.4215   25.0894  -76.6842 H         1 UNK         0.0743 
     93 H93       -72.6420   25.3053  -74.5796 H         1 UNK         0.0784 
     94 H94       -72.0840   23.8193  -75.3412 H         1 UNK         0.0784 
     95 H95       -71.0097   24.7255  -74.2881 H         1 UNK         0.0784 
     96 H96       -73.2770   25.5107  -76.9537 H         1 UNK         0.3213 
     97 H97       -73.1329   26.8965  -80.2354 H         1 UNK         0.0855 
     98 H98       -74.1277   24.1903  -79.2057 H         1 UNK         0.0814 
     99 H99       -73.2148   24.4905  -80.6712 H         1 UNK         0.0814 
    100 H100      -74.8641   25.0805  -80.5410 H         1 UNK         0.0814 
    101 H101      -75.2023   26.3450  -78.2637 H         1 UNK         0.3105 
    102 H102      -75.0934   29.5463  -76.7396 H         1 UNK         0.0547 
    103 H103      -76.3446   30.0618  -78.8437 H         1 UNK         0.0837 
    104 H104      -77.1677   28.5103  -78.7475 H         1 UNK         0.0837 
    105 H105      -77.4412   29.7370  -77.5113 H         1 UNK         0.0837 
    106 H106      -77.0028   27.4916  -76.4536 H         1 UNK         0.3020 
    107 H107      -75.1989   25.4397  -74.1538 H         1 UNK         0.1245 
    108 H108      -77.5192   27.4117  -73.8579 H         1 UNK         0.0781 
    109 H109      -76.1468   27.1745  -72.8135 H         1 UNK         0.0781 
    110 H110      -76.8483   26.1010  -70.3655 H         1 UNK         0.0836 
    111 H111      -78.5527   25.7648  -70.2001 H         1 UNK         0.0836 
    112 H112      -77.7477   25.0693  -75.3030 H         1 UNK         0.3022 
    113 H113      -77.8543   23.9016  -77.7267 H         1 UNK         0.0747 
    114 H114      -77.1382   21.5997  -78.4341 H         1 UNK         0.0793 
    115 H115      -75.9384   22.8180  -78.8090 H         1 UNK         0.0793 
    116 H116      -75.6938   21.7505  -77.4326 H         1 UNK         0.0793 
    117 H117      -77.6405   21.6714  -75.8392 H         1 UNK         0.3047 
    118 H118      -80.4678   21.5952  -74.8408 H         1 UNK         0.0822 
    119 H119      -78.2902   20.5490  -74.2538 H         1 UNK         0.0807 
    120 H120      -79.1814   20.8261  -72.7731 H         1 UNK         0.0807 
    121 H121      -77.8670   21.9102  -73.2142 H         1 UNK         0.0807 
    122 H122      -79.8841   24.0591  -73.4097 H         1 UNK         0.2946 
    123 H123      -83.1079   24.2924  -72.1807 H         1 UNK         0.1144 
    124 H124      -82.0655   23.3102  -70.1418 H         1 UNK         0.0793 
    125 H125      -82.0359   25.0637  -70.0568 H         1 UNK         0.0793 
    126 H126      -80.5667   24.1719  -70.4578 H         1 UNK         0.0793 
    127 H127      -80.7022   25.9355  -72.1776 H         1 UNK         0.2896 
@<TRIPOS>BOND
     1    1    2 1    
     2    1   67 1    
     3    1   68 1    
     4    1   69 1    
     5    2    3 2    
     6    2    4 am   BACKBONE|DICT|INTERRES
     7    4    5 1    
     8    4   70 1    
     9    5    6 1    
    10    5   65 1    
    11    5   71 1    
    12    6    7 1    
    13    6   72 1    
    14    6   73 1    
    15    7    8 1    
    16    8    9 1    
    17    8   74 1    
    18    8   75 1    
    19    9   10 ar   
    20    9   14 ar   
    21   10   11 ar   
    22   10   76 1    
    23   11   12 ar   
    24   11   48 1    
    25   12   13 ar   
    26   12   77 1    
    27   13   14 ar   
    28   13   15 1    
    29   14   78 1    
    30   15   16 1    
    31   15   79 1    
    32   15   80 1    
    33   16   17 1    
    34   17   18 1    
    35   17   81 1    
    36   17   82 1    
    37   18   19 1    
    38   18   22 1    
    39   18   83 1    
    40   19   20 am   BACKBONE|DICT|INTERRES
    41   19   21 2    
    42   20   84 1    
    43   20   85 1    
    44   22   23 am   BACKBONE|DICT|INTERRES
    45   22   86 1    
    46   23   24 2    
    47   23   25 1    
    48   25   26 1    
    49   25   27 1    
    50   25   87 1    
    51   26   88 1    
    52   26   89 1    
    53   26   90 1    
    54   27   28 am   BACKBONE|DICT|INTERRES
    55   27   91 1    
    56   28   29 2    
    57   28   30 1    
    58   30   31 1    
    59   30   32 1    
    60   30   92 1    
    61   31   93 1    
    62   31   94 1    
    63   31   95 1    
    64   32   33 am   BACKBONE|DICT|INTERRES
    65   32   96 1    
    66   33   34 2    
    67   33   35 1    
    68   35   36 1    
    69   35   37 1    
    70   35   97 1    
    71   36   98 1    
    72   36   99 1    
    73   36  100 1    
    74   37   38 am   BACKBONE|DICT|INTERRES
    75   37  101 1    
    76   38   39 2    
    77   38   40 1    
    78   40   41 1    
    79   40   42 1    
    80   40  102 1    
    81   41  103 1    
    82   41  104 1    
    83   41  105 1    
    84   42   43 am   BACKBONE|DICT|INTERRES
    85   42  106 1    
    86   43   44 2    
    87   43   45 1    
    88   45   46 1    
    89   45   49 1    
    90   45  107 1    
    91   46   47 1    
    92   46  108 1    
    93   46  109 1    
    94   47   48 1    
    95   48  110 1    
    96   48  111 1    
    97   49   50 am   BACKBONE|DICT|INTERRES
    98   49  112 1    
    99   50   51 2    
   100   50   52 1    
   101   52   53 1    
   102   52   54 1    
   103   52  113 1    
   104   53  114 1    
   105   53  115 1    
   106   53  116 1    
   107   54   55 am   BACKBONE|DICT|INTERRES
   108   54  117 1    
   109   55   56 2    
   110   55   57 1    
   111   57   58 1    
   112   57   59 1    
   113   57  118 1    
   114   58  119 1    
   115   58  120 1    
   116   58  121 1    
   117   59   60 am   BACKBONE|DICT|INTERRES
   118   59  122 1    
   119   60   61 2    
   120   60   62 1    
   121   62   63 1    
   122   62   64 1    
   123   62  123 1    
   124   63  124 1    
   125   63  125 1    
   126   63  126 1    
   127   64   65 am   BACKBONE|DICT|INTERRES
   128   64  127 1    
   129   65   66 2    
@<TRIPOS>SUBSTRUCTURE
     1 UNK         1 GROUP             0       ****    0 ROOT    
