@<TRIPOS>MOLECULE
3R135
127   129    1
SMALL
USER_CHARGES


@<TRIPOS>ATOM
      1 CA        -78.1789   29.6205  -71.4584 C.3       0 UNK        -0.1998 
      2 C         -79.6248   29.2267  -71.7010 C.2       0 UNK         0.4909 
      3 O         -80.5067   29.6295  -70.9424 O.2       0 UNK        -0.5240 
      4 N         -79.8730   28.4300  -72.7475 N.am      1 UNK        -0.4739 
      5 CA        -81.2081   27.9607  -73.1452 C.3       1 UNK         0.0864 
      6 C6        -81.2576   27.5767  -74.6455 C.3       11 UNK        -0.0881 
      7 S7        -80.8422   28.9897  -75.7273 S.3       11 UNK        -0.2682 
      8 C8        -79.4155   28.3638  -76.6690 C.3       11 UNK         0.0289 
      9 C9        -78.1559   28.2546  -75.8213 C.ar      11 UNK        -0.0687 
     10 C10       -77.7598   27.0158  -75.3126 C.ar      11 UNK        -0.0823 
     11 C11       -76.5805   26.8940  -74.5749 C.ar      11 UNK        -0.0830 
     12 C12       -75.7829   28.0215  -74.3595 C.ar      11 UNK        -0.1021 
     13 C13       -76.1582   29.2649  -74.8783 C.ar      11 UNK        -0.0753 
     14 C14       -77.3549   29.3784  -75.5942 C.ar      11 UNK        -0.0933 
     15 C15       -75.2293   30.4634  -74.7512 C.3       11 UNK         0.0166 
     16 S16       -75.6022   31.5104  -73.3092 S.3       11 UNK        -0.2615 
     17 C17       -74.8777   30.5663  -71.9224 C.3       11 UNK        -0.0865 
     18 CA        -73.4182   30.9779  -71.5944 C.3       10 UNK         0.0862 
     19 C         -72.9497   30.3517  -70.2488 C.2       10 UNK         0.5551 
     20 N         -71.8912   29.5488  -70.2136 N.am      10 UNK        -0.7319 
     21 O         -73.5511   30.6132  -69.2101 O.2       10 UNK        -0.5018 
     22 N         -72.5100   30.6605  -72.7045 N.am      10 UNK        -0.4509 
     23 C         -71.7488   31.5224  -73.3807 C.2       10 UNK         0.4899 
     24 O         -71.7615   32.7398  -73.1962 O.2       10 UNK        -0.4839 
     25 CA        -70.8005   30.9471  -74.4528 C.3       9 UNK         0.0222 
     26 CB        -69.3569   30.8935  -73.9156 C.3       9 UNK        -0.1966 
     27 N         -71.1766   29.6516  -75.0475 N.am      9 UNK        -0.4218 
     28 C         -71.2866   28.4431  -74.4795 C.2       9 UNK         0.5020 
     29 O         -71.2186   28.2542  -73.2628 O.2       9 UNK        -0.5274 
     30 CA        -71.5188   27.2530  -75.4350 C.3       8 UNK         0.0270 
     31 CB        -71.4527   25.8981  -74.7060 C.3       8 UNK        -0.1976 
     32 N         -72.7771   27.3251  -76.1866 N.am      8 UNK        -0.4313 
     33 C         -73.0524   28.1807  -77.1803 C.2       8 UNK         0.5041 
     34 O         -72.2882   29.0842  -77.5302 O.2       8 UNK        -0.5577 
     35 CA        -74.3884   27.9641  -77.9190 C.3       7 UNK         0.0284 
     36 CB        -74.6158   28.9834  -79.0538 C.3       7 UNK        -0.1958 
     37 N         -74.5553   26.5956  -78.4245 N.am      7 UNK        -0.4454 
     38 C         -73.7284   25.8929  -79.2131 C.2       7 UNK         0.5089 
     39 O         -72.6466   26.3163  -79.6231 O.2       7 UNK        -0.5125 
     40 CA        -74.1956   24.4750  -79.6193 C.3       6 UNK         0.0408 
     41 CB        -73.0779   23.6576  -80.2946 C.3       6 UNK        -0.1791 
     42 N         -74.7431   23.6903  -78.5052 N.am      6 UNK        -0.4762 
     43 C         -75.9573   23.8501  -77.9623 C.2       6 UNK         0.5007 
     44 O         -76.7472   24.7254  -78.3294 O.2       6 UNK        -0.5032 
     45 CA        -76.3199   22.9147  -76.7858 C.3       5 UNK         0.0783 
     46 C46       -75.4995   23.1463  -75.4783 C.3       11 UNK        -0.0857 
     47 S47       -74.8740   24.8343  -75.1500 S.3       11 UNK        -0.2512 
     48 C48       -76.1427   25.5355  -74.0551 C.3       11 UNK         0.0225 
     49 N         -77.7612   22.9551  -76.5283 N.am      5 UNK        -0.4615 
     50 C         -78.6873   22.3275  -77.2631 C.2       4 UNK         0.5053 
     51 O         -78.4130   21.5545  -78.1833 O.2       4 UNK        -0.5105 
     52 CA        -80.1606   22.5927  -76.8897 C.3       4 UNK         0.0263 
     53 CB        -81.1491   21.8130  -77.7777 C.3       4 UNK        -0.1981 
     54 N         -80.4393   22.2817  -75.4842 N.am      4 UNK        -0.4224 
     55 C         -80.1296   23.0726  -74.4514 C.2       3 UNK         0.4895 
     56 O         -79.5561   24.1594  -74.5710 O.2       3 UNK        -0.5091 
     57 CA        -80.4798   22.5553  -73.0541 C.3       3 UNK         0.0250 
     58 CB        -79.4143   21.5679  -72.5459 C.3       3 UNK        -0.1996 
     59 N         -80.5427   23.7125  -72.1731 N.am      3 UNK        -0.4254 
     60 C         -81.2895   23.8430  -71.0738 C.2       2 UNK         0.5004 
     61 O         -81.9790   22.9403  -70.5977 O.2       2 UNK        -0.5226 
     62 CA        -81.2676   25.2233  -70.3939 C.3       2 UNK         0.0269 
     63 CB        -80.2757   25.2282  -69.2193 C.3       2 UNK        -0.1926 
     64 N         -80.9238   26.3137  -71.3150 N.am      2 UNK        -0.4687 
     65 C         -81.7418   26.8132  -72.2547 C.2       1 UNK         0.5165 
     66 O         -82.8886   26.3997  -72.4325 O.2       1 UNK        -0.5079 
     67 H67       -77.5100   29.1595  -72.1842 H         1 UNK         0.0900 
     68 H68       -77.8645   29.3134  -70.4615 H         1 UNK         0.0900 
     69 H69       -78.0709   30.7020  -71.5350 H         1 UNK         0.0900 
     70 H70       -79.1162   28.1609  -73.3619 H         1 UNK         0.2959 
     71 H71       -81.9062   28.7886  -73.0007 H         1 UNK         0.1079 
     72 H72       -80.5977   26.7329  -74.8503 H         1 UNK         0.0837 
     73 H73       -82.2599   27.2445  -74.9231 H         1 UNK         0.0837 
     74 H74       -79.2279   29.0385  -77.5055 H         1 UNK         0.0685 
     75 H75       -79.6679   27.3991  -77.1126 H         1 UNK         0.0685 
     76 H76       -78.3585   26.1399  -75.5149 H         1 UNK         0.1434 
     77 H77       -74.8487   27.9180  -73.8249 H         1 UNK         0.1329 
     78 H78       -77.6458   30.3350  -76.0064 H         1 UNK         0.1335 
     79 H79       -74.1923   30.1314  -74.7189 H         1 UNK         0.0680 
     80 H80       -75.3104   31.0783  -75.6488 H         1 UNK         0.0680 
     81 H81       -75.5168   30.7484  -71.0567 H         1 UNK         0.1032 
     82 H82       -74.9431   29.4964  -72.1168 H         1 UNK         0.1032 
     83 H83       -73.4121   32.0555  -71.4215 H         1 UNK         0.0461 
     84 H84       -71.5993   29.1590  -69.3313 H         1 UNK         0.3453 
     85 H85       -71.3927   29.3109  -71.0583 H         1 UNK         0.3453 
     86 H86       -72.3427   29.6735  -72.8772 H         1 UNK         0.2984 
     87 H87       -70.8162   31.6574  -75.2808 H         1 UNK         0.0554 
     88 H88       -68.6555   30.5873  -74.6917 H         1 UNK         0.0847 
     89 H89       -69.2593   30.1978  -73.0815 H         1 UNK         0.0847 
     90 H90       -69.0355   31.8730  -73.5588 H         1 UNK         0.0847 
     91 H91       -71.3745   29.6744  -76.0484 H         1 UNK         0.3141 
     92 H92       -70.7013   27.2705  -76.1589 H         1 UNK         0.0743 
     93 H93       -70.4971   25.7761  -74.1943 H         1 UNK         0.0784 
     94 H94       -72.2372   25.8059  -73.9538 H         1 UNK         0.0784 
     95 H95       -71.5541   25.0649  -75.4018 H         1 UNK         0.0784 
     96 H96       -73.4693   26.6212  -75.9621 H         1 UNK         0.3213 
     97 H97       -75.1791   28.1122  -77.1851 H         1 UNK         0.0855 
     98 H98       -73.8567   28.8970  -79.8320 H         1 UNK         0.0814 
     99 H99       -74.5793   30.0050  -78.6734 H         1 UNK         0.0814 
    100 H100      -75.5919   28.8469  -79.5192 H         1 UNK         0.0814 
    101 H101      -75.4240   26.1323  -78.1704 H         1 UNK         0.3105 
    102 H102      -74.9876   24.6121  -80.3586 H         1 UNK         0.0547 
    103 H103      -72.2331   23.4987  -79.6235 H         1 UNK         0.0837 
    104 H104      -73.4387   22.6817  -80.6195 H         1 UNK         0.0837 
    105 H105      -72.6986   24.1678  -81.1811 H         1 UNK         0.0837 
    106 H106      -74.1266   22.9929  -78.1122 H         1 UNK         0.3020 
    107 H107      -76.0928   21.9009  -77.1256 H         1 UNK         0.1245 
    108 H108      -74.6106   22.5150  -75.5216 H         1 UNK         0.0781 
    109 H109      -76.0452   22.7818  -74.6061 H         1 UNK         0.0781 
    110 H110      -76.9987   24.8644  -73.9763 H         1 UNK         0.0836 
    111 H111      -75.7357   25.6330  -73.0477 H         1 UNK         0.0836 
    112 H112      -78.0842   23.5888  -75.8058 H         1 UNK         0.3022 
    113 H113      -80.3413   23.6573  -77.0557 H         1 UNK         0.0747 
    114 H114      -81.0023   22.0540  -78.8315 H         1 UNK         0.0793 
    115 H115      -82.1823   22.0606  -77.5333 H         1 UNK         0.0793 
    116 H116      -81.0270   20.7345  -77.6691 H         1 UNK         0.0793 
    117 H117      -80.8675   21.3855  -75.3001 H         1 UNK         0.3047 
    118 H118      -81.4572   22.0691  -73.0918 H         1 UNK         0.0822 
    119 H119      -79.3474   20.6926  -73.1931 H         1 UNK         0.0807 
    120 H120      -79.6514   21.2109  -71.5435 H         1 UNK         0.0807 
    121 H121      -78.4249   22.0264  -72.5117 H         1 UNK         0.0807 
    122 H122      -80.0467   24.5208  -72.5278 H         1 UNK         0.2946 
    123 H123      -82.2700   25.4073  -70.0000 H         1 UNK         0.1144 
    124 H124      -79.2518   25.0549  -69.5534 H         1 UNK         0.0793 
    125 H125      -80.5202   24.4458  -68.4993 H         1 UNK         0.0793 
    126 H126      -80.2993   26.1776  -68.6839 H         1 UNK         0.0793 
    127 H127      -80.0049   26.7220  -71.2243 H         1 UNK         0.2896 
@<TRIPOS>BOND
     1    1    2 1    
     2    1   67 1    
     3    1   68 1    
     4    1   69 1    
     5    2    3 2    
     6    2    4 am   BACKBONE|DICT|INTERRES
     7    4    5 1    
     8    4   70 1    
     9    5    6 1    
    10    5   65 1    
    11    5   71 1    
    12    6    7 1    
    13    6   72 1    
    14    6   73 1    
    15    7    8 1    
    16    8    9 1    
    17    8   74 1    
    18    8   75 1    
    19    9   10 ar   
    20    9   14 ar   
    21   10   11 ar   
    22   10   76 1    
    23   11   12 ar   
    24   11   48 1    
    25   12   13 ar   
    26   12   77 1    
    27   13   14 ar   
    28   13   15 1    
    29   14   78 1    
    30   15   16 1    
    31   15   79 1    
    32   15   80 1    
    33   16   17 1    
    34   17   18 1    
    35   17   81 1    
    36   17   82 1    
    37   18   19 1    
    38   18   22 1    
    39   18   83 1    
    40   19   20 am   BACKBONE|DICT|INTERRES
    41   19   21 2    
    42   20   84 1    
    43   20   85 1    
    44   22   23 am   BACKBONE|DICT|INTERRES
    45   22   86 1    
    46   23   24 2    
    47   23   25 1    
    48   25   26 1    
    49   25   27 1    
    50   25   87 1    
    51   26   88 1    
    52   26   89 1    
    53   26   90 1    
    54   27   28 am   BACKBONE|DICT|INTERRES
    55   27   91 1    
    56   28   29 2    
    57   28   30 1    
    58   30   31 1    
    59   30   32 1    
    60   30   92 1    
    61   31   93 1    
    62   31   94 1    
    63   31   95 1    
    64   32   33 am   BACKBONE|DICT|INTERRES
    65   32   96 1    
    66   33   34 2    
    67   33   35 1    
    68   35   36 1    
    69   35   37 1    
    70   35   97 1    
    71   36   98 1    
    72   36   99 1    
    73   36  100 1    
    74   37   38 am   BACKBONE|DICT|INTERRES
    75   37  101 1    
    76   38   39 2    
    77   38   40 1    
    78   40   41 1    
    79   40   42 1    
    80   40  102 1    
    81   41  103 1    
    82   41  104 1    
    83   41  105 1    
    84   42   43 am   BACKBONE|DICT|INTERRES
    85   42  106 1    
    86   43   44 2    
    87   43   45 1    
    88   45   46 1    
    89   45   49 1    
    90   45  107 1    
    91   46   47 1    
    92   46  108 1    
    93   46  109 1    
    94   47   48 1    
    95   48  110 1    
    96   48  111 1    
    97   49   50 am   BACKBONE|DICT|INTERRES
    98   49  112 1    
    99   50   51 2    
   100   50   52 1    
   101   52   53 1    
   102   52   54 1    
   103   52  113 1    
   104   53  114 1    
   105   53  115 1    
   106   53  116 1    
   107   54   55 am   BACKBONE|DICT|INTERRES
   108   54  117 1    
   109   55   56 2    
   110   55   57 1    
   111   57   58 1    
   112   57   59 1    
   113   57  118 1    
   114   58  119 1    
   115   58  120 1    
   116   58  121 1    
   117   59   60 am   BACKBONE|DICT|INTERRES
   118   59  122 1    
   119   60   61 2    
   120   60   62 1    
   121   62   63 1    
   122   62   64 1    
   123   62  123 1    
   124   63  124 1    
   125   63  125 1    
   126   63  126 1    
   127   64   65 am   BACKBONE|DICT|INTERRES
   128   64  127 1    
   129   65   66 2    
@<TRIPOS>SUBSTRUCTURE
     1 UNK         1 GROUP             0       ****    0 ROOT    
