@<TRIPOS>MOLECULE
3R135
127   129    1
SMALL
USER_CHARGES


@<TRIPOS>ATOM
      1 CA        -82.8926   25.5214  -73.0790 C.3       0 UNK        -0.1998 
      2 C         -84.0199   26.3980  -73.6186 C.2       0 UNK         0.4909 
      3 O         -85.1829   26.1046  -73.3505 O.2       0 UNK        -0.5240 
      4 N         -83.7529   27.4749  -74.3755 N.am      1 UNK        -0.4739 
      5 CA        -82.4527   27.9961  -74.8339 C.3       1 UNK         0.0864 
      6 C6        -81.4659   28.3133  -73.6700 C.3       11 UNK        -0.0881 
      7 S7        -80.6005   29.9024  -73.8938 S.3       11 UNK        -0.2682 
      8 C8        -80.1514   30.3059  -72.1758 C.3       11 UNK         0.0289 
      9 C9        -78.8804   29.5939  -71.7321 C.ar      11 UNK        -0.0687 
     10 C10       -78.9285   28.2885  -71.2317 C.ar      11 UNK        -0.0823 
     11 C11       -77.7632   27.6526  -70.7887 C.ar      11 UNK        -0.0830 
     12 C12       -76.5426   28.3322  -70.8533 C.ar      11 UNK        -0.1021 
     13 C13       -76.4816   29.6371  -71.3505 C.ar      11 UNK        -0.0753 
     14 C14       -77.6536   30.2610  -71.7881 C.ar      11 UNK        -0.0933 
     15 C15       -75.1596   30.3901  -71.3772 C.3       11 UNK         0.0166 
     16 S16       -74.6610   30.8093  -73.0732 S.3       11 UNK        -0.2615 
     17 C17       -73.0857   31.6852  -72.7719 C.3       11 UNK        -0.0865 
     18 CA        -71.8282   30.8712  -73.1767 C.3       10 UNK         0.0862 
     19 C         -71.4461   29.8035  -72.1131 C.2       10 UNK         0.5551 
     20 N         -71.5123   28.5124  -72.4094 N.am      10 UNK        -0.7319 
     21 O         -71.0648   30.1594  -71.0008 O.2       10 UNK        -0.5018 
     22 N         -71.9453   30.3582  -74.5496 N.am      10 UNK        -0.4509 
     23 C         -70.9361   30.2372  -75.4165 C.2       10 UNK         0.4899 
     24 O         -69.7662   30.5326  -75.1662 O.2       10 UNK        -0.4839 
     25 CA        -71.3303   29.6997  -76.7997 C.3       9 UNK         0.0222 
     26 CB        -70.3140   30.0540  -77.9073 C.3       9 UNK        -0.1966 
     27 N         -71.6101   28.2620  -76.7500 N.am      9 UNK        -0.4218 
     28 C         -70.7425   27.2552  -76.5518 C.2       9 UNK         0.5020 
     29 O         -69.5334   27.4148  -76.3797 O.2       9 UNK        -0.5274 
     30 CA        -71.2931   25.8118  -76.5439 C.3       8 UNK         0.0270 
     31 CB        -71.0772   25.1600  -75.1668 C.3       8 UNK        -0.1976 
     32 N         -72.7081   25.6920  -76.9074 N.am      8 UNK        -0.4313 
     33 C         -73.2345   25.9417  -78.1144 C.2       8 UNK         0.5041 
     34 O         -72.5624   26.2074  -79.1113 O.2       8 UNK        -0.5577 
     35 CA        -74.7715   25.9496  -78.2197 C.3       7 UNK         0.0284 
     36 CB        -75.2817   24.5929  -78.7263 C.3       7 UNK        -0.1958 
     37 N         -75.4550   26.2998  -76.9668 N.am      7 UNK        -0.4454 
     38 C         -75.3244   27.4697  -76.3196 C.2       7 UNK         0.5089 
     39 O         -74.5880   28.3830  -76.6956 O.2       7 UNK        -0.5125 
     40 CA        -76.1094   27.6260  -75.0099 C.3       6 UNK         0.0408 
     41 CB        -77.5812   27.9540  -75.2825 C.3       6 UNK        -0.1791 
     42 N         -76.0219   26.4193  -74.1932 N.am      6 UNK        -0.4762 
     43 C         -74.9582   26.0941  -73.4473 C.2       6 UNK         0.5007 
     44 O         -73.9541   26.7983  -73.3413 O.2       6 UNK        -0.5032 
     45 CA        -75.0011   24.7236  -72.7413 C.3       5 UNK         0.0783 
     46 C46       -75.6887   24.7971  -71.3545 C.3       11 UNK        -0.0857 
     47 S47       -77.5122   24.9545  -71.4260 S.3       11 UNK        -0.2512 
     48 C48       -77.8371   26.2533  -70.1928 C.3       11 UNK         0.0225 
     49 N         -75.5809   23.6709  -73.5804 N.am      5 UNK        -0.4615 
     50 C         -75.0850   23.2528  -74.7513 C.2       4 UNK         0.5053 
     51 O         -74.0508   23.6892  -75.2524 O.2       4 UNK        -0.5105 
     52 CA        -75.8973   22.1891  -75.5078 C.3       4 UNK         0.0263 
     53 CB        -75.4539   20.7799  -75.0842 C.3       4 UNK        -0.1981 
     54 N         -77.3494   22.3135  -75.3447 N.am      4 UNK        -0.4224 
     55 C         -78.0835   23.3889  -75.6636 C.2       3 UNK         0.4895 
     56 O         -77.6175   24.4490  -76.0928 O.2       3 UNK        -0.5091 
     57 CA        -79.5891   23.2539  -75.4190 C.3       3 UNK         0.0250 
     58 CB        -79.9215   23.4517  -73.9295 C.3       3 UNK        -0.1996 
     59 N         -80.3155   24.2376  -76.2175 N.am      3 UNK        -0.4254 
     60 C         -81.5229   24.0499  -76.7617 C.2       2 UNK         0.5004 
     61 O         -82.1761   23.0123  -76.6347 O.2       2 UNK        -0.5226 
     62 CA        -82.1228   25.2442  -77.5275 C.3       2 UNK         0.0269 
     63 CB        -83.2897   24.8325  -78.4447 C.3       2 UNK        -0.1926 
     64 N         -82.5993   26.2523  -76.5789 N.am      2 UNK        -0.4687 
     65 C         -81.8149   27.1439  -75.9575 C.2       1 UNK         0.5165 
     66 O         -80.6240   27.2807  -76.2332 O.2       1 UNK        -0.5079 
     67 H67       -82.0689   25.4249  -73.7811 H         1 UNK         0.0900 
     68 H68       -83.2620   24.5163  -72.8768 H         1 UNK         0.0900 
     69 H69       -82.5089   25.9296  -72.1446 H         1 UNK         0.0900 
     70 H70       -84.5438   28.0163  -74.6982 H         1 UNK         0.2959 
     71 H71       -82.7080   28.9377  -75.3230 H         1 UNK         0.1079 
     72 H72       -82.0123   28.3766  -72.7283 H         1 UNK         0.0837 
     73 H73       -80.7265   27.5219  -73.5314 H         1 UNK         0.0837 
     74 H74       -80.9746   30.0672  -71.5011 H         1 UNK         0.0685 
     75 H75       -80.0136   31.3859  -72.1034 H         1 UNK         0.0685 
     76 H76       -79.8766   27.7725  -71.1724 H         1 UNK         0.1434 
     77 H77       -75.6402   27.8537  -70.5008 H         1 UNK         0.1329 
     78 H78       -77.6081   31.2730  -72.1669 H         1 UNK         0.1335 
     79 H79       -75.2580   31.3047  -70.7908 H         1 UNK         0.0680 
     80 H80       -74.3687   29.8006  -70.9104 H         1 UNK         0.0680 
     81 H81       -73.0246   32.0133  -71.7323 H         1 UNK         0.1032 
     82 H82       -73.1136   32.6052  -73.3577 H         1 UNK         0.1032 
     83 H83       -70.9982   31.5806  -73.1643 H         1 UNK         0.0461 
     84 H84       -71.2595   27.8336  -71.7102 H         1 UNK         0.3453 
     85 H85       -71.9111   28.2080  -73.2837 H         1 UNK         0.3453 
     86 H86       -72.8746   30.0718  -74.8257 H         1 UNK         0.2984 
     87 H87       -72.2726   30.1786  -77.0713 H         1 UNK         0.0554 
     88 H88       -70.6380   29.6769  -78.8772 H         1 UNK         0.0847 
     89 H89       -69.3218   29.6500  -77.7053 H         1 UNK         0.0847 
     90 H90       -70.2058   31.1353  -77.9986 H         1 UNK         0.0847 
     91 H91       -72.5935   28.0247  -76.8400 H         1 UNK         0.3141 
     92 H92       -70.7148   25.2500  -77.2801 H         1 UNK         0.0743 
     93 H93       -70.0300   25.2092  -74.8654 H         1 UNK         0.0784 
     94 H94       -71.6636   25.6541  -74.3915 H         1 UNK         0.0784 
     95 H95       -71.3567   24.1064  -75.1788 H         1 UNK         0.0784 
     96 H96       -73.3344   25.3717  -76.1751 H         1 UNK         0.3213 
     97 H97       -75.0431   26.7106  -78.9543 H         1 UNK         0.0855 
     98 H98       -74.9496   23.7791  -78.0840 H         1 UNK         0.0814 
     99 H99       -74.9025   24.3869  -79.7280 H         1 UNK         0.0814 
    100 H100      -76.3704   24.5643  -78.7776 H         1 UNK         0.0814 
    101 H101      -76.1052   25.6141  -76.5916 H         1 UNK         0.3105 
    102 H102      -75.6800   28.4579  -74.4505 H         1 UNK         0.0547 
    103 H103      -78.0662   27.1665  -75.8586 H         1 UNK         0.0837 
    104 H104      -78.1365   28.0808  -74.3531 H         1 UNK         0.0837 
    105 H105      -77.6795   28.8816  -75.8473 H         1 UNK         0.0837 
    106 H106      -76.7877   25.7627  -74.2584 H         1 UNK         0.3020 
    107 H107      -73.9580   24.4457  -72.5717 H         1 UNK         0.1245 
    108 H108      -75.2584   25.6036  -70.7601 H         1 UNK         0.0781 
    109 H109      -75.4671   23.8850  -70.7983 H         1 UNK         0.0781 
    110 H110      -77.1442   26.1579  -69.3554 H         1 UNK         0.0836 
    111 H111      -78.8303   26.0855  -69.7733 H         1 UNK         0.0836 
    112 H112      -76.4460   23.2702  -73.2490 H         1 UNK         0.3022 
    113 H113      -75.6816   22.3011  -76.5702 H         1 UNK         0.0747 
    114 H114      -75.9441   20.0117  -75.6826 H         1 UNK         0.0793 
    115 H115      -74.3784   20.6531  -75.2178 H         1 UNK         0.0793 
    116 H116      -75.6771   20.5832  -74.0347 H         1 UNK         0.0793 
    117 H117      -77.8261   21.4981  -74.9866 H         1 UNK         0.3047 
    118 H118      -79.8840   22.2473  -75.7242 H         1 UNK         0.0822 
    119 H119      -79.3450   22.7756  -73.2969 H         1 UNK         0.0807 
    120 H120      -80.9739   23.2492  -73.7326 H         1 UNK         0.0807 
    121 H121      -79.7053   24.4693  -73.6014 H         1 UNK         0.0807 
    122 H122      -79.8299   25.1153  -76.3689 H         1 UNK         0.2946 
    123 H123      -81.3371   25.6706  -78.1562 H         1 UNK         0.1144 
    124 H124      -82.9733   24.0716  -79.1594 H         1 UNK         0.0793 
    125 H125      -83.6593   25.6818  -79.0196 H         1 UNK         0.0793 
    126 H126      -84.1273   24.4213  -77.8795 H         1 UNK         0.0793 
    127 H127      -83.5647   26.1833  -76.2895 H         1 UNK         0.2896 
@<TRIPOS>BOND
     1    1    2 1    
     2    1   67 1    
     3    1   68 1    
     4    1   69 1    
     5    2    3 2    
     6    2    4 am   BACKBONE|DICT|INTERRES
     7    4    5 1    
     8    4   70 1    
     9    5    6 1    
    10    5   65 1    
    11    5   71 1    
    12    6    7 1    
    13    6   72 1    
    14    6   73 1    
    15    7    8 1    
    16    8    9 1    
    17    8   74 1    
    18    8   75 1    
    19    9   10 ar   
    20    9   14 ar   
    21   10   11 ar   
    22   10   76 1    
    23   11   12 ar   
    24   11   48 1    
    25   12   13 ar   
    26   12   77 1    
    27   13   14 ar   
    28   13   15 1    
    29   14   78 1    
    30   15   16 1    
    31   15   79 1    
    32   15   80 1    
    33   16   17 1    
    34   17   18 1    
    35   17   81 1    
    36   17   82 1    
    37   18   19 1    
    38   18   22 1    
    39   18   83 1    
    40   19   20 am   BACKBONE|DICT|INTERRES
    41   19   21 2    
    42   20   84 1    
    43   20   85 1    
    44   22   23 am   BACKBONE|DICT|INTERRES
    45   22   86 1    
    46   23   24 2    
    47   23   25 1    
    48   25   26 1    
    49   25   27 1    
    50   25   87 1    
    51   26   88 1    
    52   26   89 1    
    53   26   90 1    
    54   27   28 am   BACKBONE|DICT|INTERRES
    55   27   91 1    
    56   28   29 2    
    57   28   30 1    
    58   30   31 1    
    59   30   32 1    
    60   30   92 1    
    61   31   93 1    
    62   31   94 1    
    63   31   95 1    
    64   32   33 am   BACKBONE|DICT|INTERRES
    65   32   96 1    
    66   33   34 2    
    67   33   35 1    
    68   35   36 1    
    69   35   37 1    
    70   35   97 1    
    71   36   98 1    
    72   36   99 1    
    73   36  100 1    
    74   37   38 am   BACKBONE|DICT|INTERRES
    75   37  101 1    
    76   38   39 2    
    77   38   40 1    
    78   40   41 1    
    79   40   42 1    
    80   40  102 1    
    81   41  103 1    
    82   41  104 1    
    83   41  105 1    
    84   42   43 am   BACKBONE|DICT|INTERRES
    85   42  106 1    
    86   43   44 2    
    87   43   45 1    
    88   45   46 1    
    89   45   49 1    
    90   45  107 1    
    91   46   47 1    
    92   46  108 1    
    93   46  109 1    
    94   47   48 1    
    95   48  110 1    
    96   48  111 1    
    97   49   50 am   BACKBONE|DICT|INTERRES
    98   49  112 1    
    99   50   51 2    
   100   50   52 1    
   101   52   53 1    
   102   52   54 1    
   103   52  113 1    
   104   53  114 1    
   105   53  115 1    
   106   53  116 1    
   107   54   55 am   BACKBONE|DICT|INTERRES
   108   54  117 1    
   109   55   56 2    
   110   55   57 1    
   111   57   58 1    
   112   57   59 1    
   113   57  118 1    
   114   58  119 1    
   115   58  120 1    
   116   58  121 1    
   117   59   60 am   BACKBONE|DICT|INTERRES
   118   59  122 1    
   119   60   61 2    
   120   60   62 1    
   121   62   63 1    
   122   62   64 1    
   123   62  123 1    
   124   63  124 1    
   125   63  125 1    
   126   63  126 1    
   127   64   65 am   BACKBONE|DICT|INTERRES
   128   64  127 1    
   129   65   66 2    
@<TRIPOS>SUBSTRUCTURE
     1 UNK         1 GROUP             0       ****    0 ROOT    
