@<TRIPOS>MOLECULE
3R135
127   129    1
SMALL
USER_CHARGES


@<TRIPOS>ATOM
      1 CA        -81.5262   31.2796  -79.0248 C.3       0 UNK        -0.1998 
      2 C         -80.7278   30.1751  -78.3483 C.2       0 UNK         0.4909 
      3 O         -80.4408   29.1556  -78.9762 O.2       0 UNK        -0.5240 
      4 N         -80.3607   30.3732  -77.0755 N.am      1 UNK        -0.4739 
      5 CA        -79.6471   29.3927  -76.2513 C.3       1 UNK         0.0864 
      6 C6        -78.9973   30.0742  -75.0234 C.3       11 UNK        -0.0881 
      7 S7        -77.6359   29.0887  -74.3159 S.3       11 UNK        -0.2682 
      8 C8        -78.2183   28.9025  -72.6043 C.3       11 UNK         0.0289 
      9 C9        -77.2244   28.1066  -71.7760 C.ar      11 UNK        -0.0687 
     10 C10       -77.4314   26.7457  -71.5426 C.ar      11 UNK        -0.0823 
     11 C11       -76.5099   26.0046  -70.7980 C.ar      11 UNK        -0.0830 
     12 C12       -75.3823   26.6417  -70.2691 C.ar      11 UNK        -0.1021 
     13 C13       -75.1552   28.0007  -70.5063 C.ar      11 UNK        -0.0753 
     14 C14       -76.0860   28.7277  -71.2566 C.ar      11 UNK        -0.0933 
     15 C15       -73.8603   28.6459  -70.0277 C.3       11 UNK         0.0166 
     16 S16       -74.0979   30.2971  -69.2883 S.3       11 UNK        -0.2615 
     17 C17       -72.5542   31.1321  -69.8013 C.3       11 UNK        -0.0865 
     18 CA        -72.7824   32.2574  -70.8556 C.3       10 UNK         0.0862 
     19 C         -71.4724   33.0390  -71.1822 C.2       10 UNK         0.5551 
     20 N         -71.2735   33.5148  -72.4054 N.am      10 UNK        -0.7319 
     21 O         -70.6361   33.2483  -70.3065 O.2       10 UNK        -0.5018 
     22 N         -73.5572   31.8239  -72.0365 N.am      10 UNK        -0.4509 
     23 C         -73.2042   30.8891  -72.9293 C.2       10 UNK         0.4899 
     24 O         -72.1560   30.2440  -72.8694 O.2       10 UNK        -0.4839 
     25 CA        -74.2305   30.6421  -74.0536 C.3       9 UNK         0.0222 
     26 CB        -74.3848   31.8725  -74.9733 C.3       9 UNK        -0.1966 
     27 N         -73.9874   29.4219  -74.8367 N.am      9 UNK        -0.4218 
     28 C         -72.9831   29.1676  -75.6909 C.2       9 UNK         0.5020 
     29 O         -72.0863   29.9640  -75.9750 O.2       9 UNK        -0.5274 
     30 CA        -72.9776   27.7807  -76.3637 C.3       8 UNK         0.0270 
     31 CB        -72.1385   26.7932  -75.5363 C.3       8 UNK        -0.1976 
     32 N         -74.3088   27.2089  -76.6093 N.am      8 UNK        -0.4313 
     33 C         -75.2318   27.7442  -77.4258 C.2       8 UNK         0.5041 
     34 O         -75.0595   28.7974  -78.0422 O.2       8 UNK        -0.5577 
     35 CA        -76.5697   26.9860  -77.5788 C.3       7 UNK         0.0284 
     36 CB        -77.3590   27.3991  -78.8394 C.3       7 UNK        -0.1958 
     37 N         -76.4471   25.5264  -77.5070 N.am      7 UNK        -0.4454 
     38 C         -75.6947   24.7318  -78.2836 C.2       7 UNK         0.5089 
     39 O         -75.0395   25.1349  -79.2462 O.2       7 UNK        -0.5125 
     40 CA        -75.6513   23.2345  -77.9021 C.3       6 UNK         0.0408 
     41 CB        -74.3771   22.5373  -78.4219 C.3       6 UNK        -0.1791 
     42 N         -75.8153   22.9634  -76.4650 N.am      6 UNK        -0.4762 
     43 C         -75.1056   23.4893  -75.4505 C.2       6 UNK         0.5007 
     44 O         -74.2290   24.3386  -75.6143 O.2       6 UNK        -0.5032 
     45 CA        -75.4452   23.0191  -74.0206 C.3       5 UNK         0.0783 
     46 C46       -75.1649   24.1221  -72.9699 C.3       11 UNK        -0.0857 
     47 S47       -75.3151   23.5257  -71.2494 S.3       11 UNK        -0.2512 
     48 C48       -76.7149   24.5059  -70.6110 C.3       11 UNK         0.0225 
     49 N         -76.8292   22.5389  -73.9661 N.am      5 UNK        -0.4615 
     50 C         -77.2011   21.3160  -73.5674 C.2       4 UNK         0.5053 
     51 O         -76.4248   20.4678  -73.1271 O.2       4 UNK        -0.5105 
     52 CA        -78.6932   20.9603  -73.7093 C.3       4 UNK         0.0263 
     53 CB        -79.4375   21.2640  -72.3987 C.3       4 UNK        -0.1981 
     54 N         -79.3717   21.6437  -74.8163 N.am      4 UNK        -0.4224 
     55 C         -79.0206   21.5828  -76.1101 C.2       3 UNK         0.4895 
     56 O         -78.0787   20.9137  -76.5349 O.2       3 UNK        -0.5091 
     57 CA        -79.8170   22.4547  -77.0959 C.3       3 UNK         0.0250 
     58 CB        -80.8821   21.6126  -77.8161 C.3       3 UNK        -0.1996 
     59 N         -80.4556   23.6257  -76.4840 N.am      3 UNK        -0.4254 
     60 C         -79.8030   24.6477  -75.9148 C.2       2 UNK         0.5004 
     61 O         -78.5751   24.6996  -75.7831 O.2       2 UNK        -0.5226 
     62 CA        -80.6682   25.7852  -75.3682 C.3       2 UNK         0.0269 
     63 CB        -80.9105   25.6114  -73.8595 C.3       2 UNK        -0.1926 
     64 N         -79.9761   27.0422  -75.6266 N.am      2 UNK        -0.4687 
     65 C         -80.5707   28.2180  -75.8551 C.2       1 UNK         0.5165 
     66 O         -81.7883   28.3956  -75.7564 O.2       1 UNK        -0.5079 
     67 H67       -81.6954   32.1267  -78.3602 H         1 UNK         0.0900 
     68 H68       -82.4964   30.8992  -79.3430 H         1 UNK         0.0900 
     69 H69       -80.9956   31.6404  -79.9055 H         1 UNK         0.0900 
     70 H70       -80.6554   31.2150  -76.6015 H         1 UNK         0.2959 
     71 H71       -78.8486   28.9900  -76.8758 H         1 UNK         0.1079 
     72 H72       -78.5618   31.0309  -75.3168 H         1 UNK         0.0837 
     73 H73       -79.7451   30.3104  -74.2636 H         1 UNK         0.0837 
     74 H74       -78.3621   29.8882  -72.1588 H         1 UNK         0.0685 
     75 H75       -79.1942   28.4136  -72.6049 H         1 UNK         0.0685 
     76 H76       -78.3015   26.2597  -71.9582 H         1 UNK         0.1434 
     77 H77       -74.6590   26.0638  -69.7098 H         1 UNK         0.1329 
     78 H78       -75.9171   29.7768  -71.4521 H         1 UNK         0.1335 
     79 H79       -73.3583   28.0126  -69.2946 H         1 UNK         0.0680 
     80 H80       -73.1929   28.7073  -70.8867 H         1 UNK         0.0680 
     81 H81       -71.8302   30.4038  -70.1697 H         1 UNK         0.1032 
     82 H82       -72.1069   31.5526  -68.8988 H         1 UNK         0.1032 
     83 H83       -73.4176   33.0026  -70.3755 H         1 UNK         0.0461 
     84 H84       -71.9524   33.3531  -73.1312 H         1 UNK         0.3453 
     85 H85       -70.4297   34.0285  -72.6055 H         1 UNK         0.3453 
     86 H86       -74.4348   32.3057  -72.1670 H         1 UNK         0.2984 
     87 H87       -75.1896   30.4827  -73.5633 H         1 UNK         0.0554 
     88 H88       -75.0999   31.6783  -75.7731 H         1 UNK         0.0847 
     89 H89       -73.4392   32.1600  -75.4337 H         1 UNK         0.0847 
     90 H90       -74.7511   32.7388  -74.4219 H         1 UNK         0.0847 
     91 H91       -74.6512   28.6769  -74.6801 H         1 UNK         0.3141 
     92 H92       -72.4944   27.8989  -77.3359 H         1 UNK         0.0743 
     93 H93       -72.6070   26.5709  -74.5766 H         1 UNK         0.0784 
     94 H94       -71.9974   25.8516  -76.0675 H         1 UNK         0.0784 
     95 H95       -71.1465   27.1977  -75.3299 H         1 UNK         0.0784 
     96 H96       -74.4905   26.2990  -76.1957 H         1 UNK         0.3213 
     97 H97       -77.1612   27.2723  -76.7106 H         1 UNK         0.0855 
     98 H98       -77.5409   28.4742  -78.8607 H         1 UNK         0.0814 
     99 H99       -78.3323   26.9095  -78.8762 H         1 UNK         0.0814 
    100 H100      -76.8207   27.1467  -79.7532 H         1 UNK         0.0814 
    101 H101      -76.9918   25.0817  -76.7709 H         1 UNK         0.3105 
    102 H102      -76.5070   22.7731  -78.3969 H         1 UNK         0.0547 
    103 H103      -74.3021   22.6102  -79.5075 H         1 UNK         0.0837 
    104 H104      -73.4753   22.9843  -78.0020 H         1 UNK         0.0837 
    105 H105      -74.3745   21.4767  -78.1712 H         1 UNK         0.0837 
    106 H106      -76.5201   22.2688  -76.2404 H         1 UNK         0.3020 
    107 H107      -74.7557   22.1944  -73.8268 H         1 UNK         0.1245 
    108 H108      -75.8226   24.9739  -73.1450 H         1 UNK         0.0781 
    109 H109      -74.1478   24.5057  -73.0703 H         1 UNK         0.0781 
    110 H110      -76.8440   24.2923  -69.5492 H         1 UNK         0.0836 
    111 H111      -77.6272   24.1704  -71.1068 H         1 UNK         0.0836 
    112 H112      -77.5300   23.1709  -74.3333 H         1 UNK         0.3022 
    113 H113      -78.7550   19.8871  -73.9011 H         1 UNK         0.0747 
    114 H114      -80.4732   20.9264  -72.4414 H         1 UNK         0.0793 
    115 H115      -78.9677   20.7545  -71.5560 H         1 UNK         0.0793 
    116 H116      -79.4393   22.3313  -72.1731 H         1 UNK         0.0793 
    117 H117      -80.1627   22.2208  -74.5719 H         1 UNK         0.3047 
    118 H118      -79.1094   22.8210  -77.8430 H         1 UNK         0.0822 
    119 H119      -81.3894   22.1898  -78.5895 H         1 UNK         0.0807 
    120 H120      -81.6380   21.2382  -77.1245 H         1 UNK         0.0807 
    121 H121      -80.4313   20.7477  -78.3052 H         1 UNK         0.0807 
    122 H122      -81.4642   23.6603  -76.5350 H         1 UNK         0.2946 
    123 H123      -81.6267   25.7861  -75.8932 H         1 UNK         0.1144 
    124 H124      -81.4754   24.7009  -73.6562 H         1 UNK         0.0793 
    125 H125      -81.4809   26.4446  -73.4487 H         1 UNK         0.0793 
    126 H126      -79.9732   25.5427  -73.3090 H         1 UNK         0.0793 
    127 H127      -78.9715   26.9565  -75.7017 H         1 UNK         0.2896 
@<TRIPOS>BOND
     1    1    2 1    
     2    1   67 1    
     3    1   68 1    
     4    1   69 1    
     5    2    3 2    
     6    2    4 am   BACKBONE|DICT|INTERRES
     7    4    5 1    
     8    4   70 1    
     9    5    6 1    
    10    5   65 1    
    11    5   71 1    
    12    6    7 1    
    13    6   72 1    
    14    6   73 1    
    15    7    8 1    
    16    8    9 1    
    17    8   74 1    
    18    8   75 1    
    19    9   10 ar   
    20    9   14 ar   
    21   10   11 ar   
    22   10   76 1    
    23   11   12 ar   
    24   11   48 1    
    25   12   13 ar   
    26   12   77 1    
    27   13   14 ar   
    28   13   15 1    
    29   14   78 1    
    30   15   16 1    
    31   15   79 1    
    32   15   80 1    
    33   16   17 1    
    34   17   18 1    
    35   17   81 1    
    36   17   82 1    
    37   18   19 1    
    38   18   22 1    
    39   18   83 1    
    40   19   20 am   BACKBONE|DICT|INTERRES
    41   19   21 2    
    42   20   84 1    
    43   20   85 1    
    44   22   23 am   BACKBONE|DICT|INTERRES
    45   22   86 1    
    46   23   24 2    
    47   23   25 1    
    48   25   26 1    
    49   25   27 1    
    50   25   87 1    
    51   26   88 1    
    52   26   89 1    
    53   26   90 1    
    54   27   28 am   BACKBONE|DICT|INTERRES
    55   27   91 1    
    56   28   29 2    
    57   28   30 1    
    58   30   31 1    
    59   30   32 1    
    60   30   92 1    
    61   31   93 1    
    62   31   94 1    
    63   31   95 1    
    64   32   33 am   BACKBONE|DICT|INTERRES
    65   32   96 1    
    66   33   34 2    
    67   33   35 1    
    68   35   36 1    
    69   35   37 1    
    70   35   97 1    
    71   36   98 1    
    72   36   99 1    
    73   36  100 1    
    74   37   38 am   BACKBONE|DICT|INTERRES
    75   37  101 1    
    76   38   39 2    
    77   38   40 1    
    78   40   41 1    
    79   40   42 1    
    80   40  102 1    
    81   41  103 1    
    82   41  104 1    
    83   41  105 1    
    84   42   43 am   BACKBONE|DICT|INTERRES
    85   42  106 1    
    86   43   44 2    
    87   43   45 1    
    88   45   46 1    
    89   45   49 1    
    90   45  107 1    
    91   46   47 1    
    92   46  108 1    
    93   46  109 1    
    94   47   48 1    
    95   48  110 1    
    96   48  111 1    
    97   49   50 am   BACKBONE|DICT|INTERRES
    98   49  112 1    
    99   50   51 2    
   100   50   52 1    
   101   52   53 1    
   102   52   54 1    
   103   52  113 1    
   104   53  114 1    
   105   53  115 1    
   106   53  116 1    
   107   54   55 am   BACKBONE|DICT|INTERRES
   108   54  117 1    
   109   55   56 2    
   110   55   57 1    
   111   57   58 1    
   112   57   59 1    
   113   57  118 1    
   114   58  119 1    
   115   58  120 1    
   116   58  121 1    
   117   59   60 am   BACKBONE|DICT|INTERRES
   118   59  122 1    
   119   60   61 2    
   120   60   62 1    
   121   62   63 1    
   122   62   64 1    
   123   62  123 1    
   124   63  124 1    
   125   63  125 1    
   126   63  126 1    
   127   64   65 am   BACKBONE|DICT|INTERRES
   128   64  127 1    
   129   65   66 2    
@<TRIPOS>SUBSTRUCTURE
     1 UNK         1 GROUP             0       ****    0 ROOT    
