@<TRIPOS>MOLECULE
3R135
127   129    1
SMALL
USER_CHARGES


@<TRIPOS>ATOM
      1 CA        -81.7462   23.2595  -70.4501 C.3       0 UNK        -0.1998 
      2 C         -82.1227   24.3768  -71.4105 C.2       0 UNK         0.4909 
      3 O         -82.8274   24.1294  -72.3897 O.2       0 UNK        -0.5240 
      4 N         -81.6492   25.6031  -71.1482 N.am      1 UNK        -0.4739 
      5 CA        -81.8733   26.7935  -71.9765 C.3       1 UNK         0.0864 
      6 C6        -81.2843   28.0572  -71.3071 C.3       11 UNK        -0.0881 
      7 S7        -81.9130   29.5904  -72.0679 S.3       11 UNK        -0.2682 
      8 C8        -80.6795   30.8040  -71.5019 C.3       11 UNK         0.0289 
      9 C9        -79.2906   30.5564  -72.0789 C.ar      11 UNK        -0.0687 
     10 C10       -79.0760   30.6139  -73.4596 C.ar      11 UNK        -0.0823 
     11 C11       -77.7938   30.4387  -73.9906 C.ar      11 UNK        -0.0830 
     12 C12       -76.7177   30.2251  -73.1228 C.ar      11 UNK        -0.1021 
     13 C13       -76.9221   30.1402  -71.7422 C.ar      11 UNK        -0.0753 
     14 C14       -78.2108   30.3052  -71.2270 C.ar      11 UNK        -0.0933 
     15 C15       -75.7498   29.9068  -70.7999 C.3       11 UNK         0.0166 
     16 S16       -75.4921   28.1399  -70.4318 S.3       11 UNK        -0.2615 
     17 C17       -74.6828   27.5694  -71.9627 C.3       11 UNK        -0.0865 
     18 CA        -73.1896   28.0238  -72.0603 C.3       10 UNK         0.0862 
     19 C         -72.1652   26.8619  -71.8654 C.2       10 UNK         0.5551 
     20 N         -71.0357   26.8449  -72.5653 N.am      10 UNK        -0.7319 
     21 O         -72.3759   25.9804  -71.0362 O.2       10 UNK        -0.5018 
     22 N         -72.9349   28.8844  -73.2280 N.am      10 UNK        -0.4509 
     23 C         -73.0502   28.5145  -74.5090 C.2       10 UNK         0.4899 
     24 O         -73.4717   27.4166  -74.8705 O.2       10 UNK        -0.4839 
     25 CA        -72.5964   29.5157  -75.5845 C.3       9 UNK         0.0222 
     26 CB        -72.1723   30.9021  -75.0468 C.3       9 UNK        -0.1966 
     27 N         -71.5445   28.9188  -76.4130 N.am      9 UNK        -0.4218 
     28 C         -70.3418   28.4799  -76.0063 C.2       9 UNK         0.5020 
     29 O         -69.9315   28.6071  -74.8501 O.2       9 UNK        -0.5274 
     30 CA        -69.4585   27.7480  -77.0407 C.3       8 UNK         0.0270 
     31 CB        -68.6323   26.6231  -76.3885 C.3       8 UNK        -0.1976 
     32 N         -70.2424   27.1746  -78.1380 N.am      8 UNK        -0.4313 
     33 C         -70.5135   27.7743  -79.3046 C.2       8 UNK         0.5041 
     34 O         -70.0618   28.8719  -79.6316 O.2       8 UNK        -0.5577 
     35 CA        -71.4881   27.0444  -80.2516 C.3       7 UNK         0.0284 
     36 CB        -70.7100   26.2441  -81.3087 C.3       7 UNK        -0.1958 
     37 N         -72.4373   26.1530  -79.5678 N.am      7 UNK        -0.4454 
     38 C         -73.3446   26.5480  -78.6627 C.2       7 UNK         0.5089 
     39 O         -73.4886   27.7254  -78.3252 O.2       7 UNK        -0.5125 
     40 CA        -74.2065   25.4494  -78.0177 C.3       6 UNK         0.0408 
     41 CB        -73.3625   24.2708  -77.4933 C.3       6 UNK        -0.1791 
     42 N         -74.9577   26.0187  -76.9029 N.am      6 UNK        -0.4762 
     43 C         -76.2022   25.6985  -76.5410 C.2       6 UNK         0.5007 
     44 O         -76.8903   24.8557  -77.1219 O.2       6 UNK        -0.5032 
     45 CA        -76.7797   26.4665  -75.3320 C.3       5 UNK         0.0783 
     46 C46       -77.6436   27.6743  -75.7759 C.3       11 UNK        -0.0857 
     47 S47       -76.6064   29.1232  -76.1734 S.3       11 UNK        -0.2512 
     48 C48       -77.5803   30.5123  -75.4995 C.3       11 UNK         0.0225 
     49 N         -77.5160   25.5803  -74.4316 N.am      5 UNK        -0.4615 
     50 C         -76.9781   24.5755  -73.7275 C.2       4 UNK         0.5053 
     51 O         -75.7777   24.3036  -73.7220 O.2       4 UNK        -0.5105 
     52 CA        -77.9404   23.7349  -72.8760 C.3       4 UNK         0.0263 
     53 CB        -78.1556   24.3910  -71.5015 C.3       4 UNK        -0.1981 
     54 N         -79.2288   23.5516  -73.5485 N.am      4 UNK        -0.4224 
     55 C         -79.4958   22.5640  -74.4166 C.2       3 UNK         0.4895 
     56 O         -78.7048   21.6584  -74.6823 O.2       3 UNK        -0.5091 
     57 CA        -80.8759   22.5639  -75.1009 C.3       3 UNK         0.0250 
     58 CB        -81.8142   21.5528  -74.4217 C.3       3 UNK        -0.1996 
     59 N         -81.5064   23.8868  -75.1086 N.am      3 UNK        -0.4254 
     60 C         -81.2332   24.8409  -76.0128 C.2       2 UNK         0.5004 
     61 O         -80.5019   24.6665  -76.9867 O.2       2 UNK        -0.5226 
     62 CA        -81.8577   26.2341  -75.7963 C.3       2 UNK         0.0269 
     63 CB        -83.1130   26.4026  -76.6672 C.3       2 UNK        -0.1926 
     64 N         -82.1965   26.5333  -74.4009 N.am      2 UNK        -0.4687 
     65 C         -81.3112   26.5797  -73.3967 C.2       1 UNK         0.5165 
     66 O         -80.1035   26.3911  -73.5490 O.2       1 UNK        -0.5079 
     67 H67       -81.1759   23.6287  -69.5980 H         1 UNK         0.0900 
     68 H68       -81.1441   22.5109  -70.9643 H         1 UNK         0.0900 
     69 H69       -82.6446   22.7731  -70.0712 H         1 UNK         0.0900 
     70 H70       -81.0630   25.7408  -70.3375 H         1 UNK         0.2959 
     71 H71       -82.9558   26.9222  -72.0469 H         1 UNK         0.1079 
     72 H72       -81.5573   28.0854  -70.2510 H         1 UNK         0.0837 
     73 H73       -80.1929   28.0382  -71.3377 H         1 UNK         0.0837 
     74 H74       -80.6564   30.8009  -70.4109 H         1 UNK         0.0685 
     75 H75       -81.0091   31.8010  -71.7973 H         1 UNK         0.0685 
     76 H76       -79.9132   30.8024  -74.1180 H         1 UNK         0.1434 
     77 H77       -75.7206   30.1163  -73.5262 H         1 UNK         0.1329 
     78 H78       -78.3678   30.2550  -70.1581 H         1 UNK         0.1335 
     79 H79       -75.9266   30.4333  -69.8607 H         1 UNK         0.0680 
     80 H80       -74.8377   30.3371  -71.2156 H         1 UNK         0.0680 
     81 H81       -74.7797   26.4831  -72.0149 H         1 UNK         0.1032 
     82 H82       -75.2696   27.9293  -72.8049 H         1 UNK         0.1032 
     83 H83       -72.9749   28.6792  -71.2159 H         1 UNK         0.0461 
     84 H84       -70.3784   26.0968  -72.4147 H         1 UNK         0.3453 
     85 H85       -70.8311   27.5630  -73.2501 H         1 UNK         0.3453 
     86 H86       -72.5361   29.7896  -73.0261 H         1 UNK         0.2984 
     87 H87       -73.4550   29.6667  -76.2403 H         1 UNK         0.0554 
     88 H88       -72.9888   31.3809  -74.5046 H         1 UNK         0.0847 
     89 H89       -71.9047   31.5693  -75.8661 H         1 UNK         0.0847 
     90 H90       -71.3127   30.8474  -74.3782 H         1 UNK         0.0847 
     91 H91       -71.8372   28.6895  -77.3558 H         1 UNK         0.3141 
     92 H92       -68.7606   28.4872  -77.4393 H         1 UNK         0.0743 
     93 H93       -67.9637   27.0187  -75.6227 H         1 UNK         0.0784 
     94 H94       -68.0093   26.1114  -77.1224 H         1 UNK         0.0784 
     95 H95       -69.2708   25.8787  -75.9110 H         1 UNK         0.0784 
     96 H96       -70.6712   26.2779  -77.9604 H         1 UNK         0.3213 
     97 H97       -72.0714   27.8119  -80.7653 H         1 UNK         0.0855 
     98 H98       -70.1254   25.4405  -80.8591 H         1 UNK         0.0814 
     99 H99       -70.0153   26.8872  -81.8511 H         1 UNK         0.0814 
    100 H100      -71.3800   25.8021  -82.0464 H         1 UNK         0.0814 
    101 H101      -72.3901   25.1735  -79.8102 H         1 UNK         0.3105 
    102 H102      -74.8964   25.0893  -78.7834 H         1 UNK         0.0547 
    103 H103      -72.8448   23.7509  -78.2995 H         1 UNK         0.0837 
    104 H104      -72.6117   24.6034  -76.7751 H         1 UNK         0.0837 
    105 H105      -73.9890   23.5311  -76.9942 H         1 UNK         0.0837 
    106 H106      -74.4613   26.7377  -76.3796 H         1 UNK         0.3020 
    107 H107      -75.9439   26.8403  -74.7413 H         1 UNK         0.1245 
    108 H108      -78.3274   27.9547  -74.9736 H         1 UNK         0.0781 
    109 H109      -78.2774   27.4284  -76.6303 H         1 UNK         0.0781 
    110 H110      -77.0653   31.4449  -75.7329 H         1 UNK         0.0836 
    111 H111      -78.5357   30.5495  -76.0252 H         1 UNK         0.0836 
    112 H112      -78.5055   25.7778  -74.3156 H         1 UNK         0.3022 
    113 H113      -77.4761   22.7600  -72.7110 H         1 UNK         0.0747 
    114 H114      -77.2051   24.5224  -70.9824 H         1 UNK         0.0793 
    115 H115      -78.7884   23.7753  -70.8632 H         1 UNK         0.0793 
    116 H116      -78.6146   25.3764  -71.5849 H         1 UNK         0.0793 
    117 H117      -79.9006   24.3008  -73.4415 H         1 UNK         0.3047 
    118 H118      -80.7273   22.2378  -76.1329 H         1 UNK         0.0822 
    119 H119      -81.3983   20.5453  -74.4677 H         1 UNK         0.0807 
    120 H120      -82.7877   21.5231  -74.9113 H         1 UNK         0.0807 
    121 H121      -81.9747   21.7882  -73.3697 H         1 UNK         0.0807 
    122 H122      -82.1227   24.1029  -74.3306 H         1 UNK         0.2946 
    123 H123      -81.1147   26.9677  -76.1181 H         1 UNK         0.1144 
    124 H124      -83.5103   27.4157  -76.6005 H         1 UNK         0.0793 
    125 H125      -83.9032   25.7101  -76.3744 H         1 UNK         0.0793 
    126 H126      -82.8875   26.2142  -77.7180 H         1 UNK         0.0793 
    127 H127      -83.1764   26.6637  -74.1931 H         1 UNK         0.2896 
@<TRIPOS>BOND
     1    1    2 1    
     2    1   67 1    
     3    1   68 1    
     4    1   69 1    
     5    2    3 2    
     6    2    4 am   BACKBONE|DICT|INTERRES
     7    4    5 1    
     8    4   70 1    
     9    5    6 1    
    10    5   65 1    
    11    5   71 1    
    12    6    7 1    
    13    6   72 1    
    14    6   73 1    
    15    7    8 1    
    16    8    9 1    
    17    8   74 1    
    18    8   75 1    
    19    9   10 ar   
    20    9   14 ar   
    21   10   11 ar   
    22   10   76 1    
    23   11   12 ar   
    24   11   48 1    
    25   12   13 ar   
    26   12   77 1    
    27   13   14 ar   
    28   13   15 1    
    29   14   78 1    
    30   15   16 1    
    31   15   79 1    
    32   15   80 1    
    33   16   17 1    
    34   17   18 1    
    35   17   81 1    
    36   17   82 1    
    37   18   19 1    
    38   18   22 1    
    39   18   83 1    
    40   19   20 am   BACKBONE|DICT|INTERRES
    41   19   21 2    
    42   20   84 1    
    43   20   85 1    
    44   22   23 am   BACKBONE|DICT|INTERRES
    45   22   86 1    
    46   23   24 2    
    47   23   25 1    
    48   25   26 1    
    49   25   27 1    
    50   25   87 1    
    51   26   88 1    
    52   26   89 1    
    53   26   90 1    
    54   27   28 am   BACKBONE|DICT|INTERRES
    55   27   91 1    
    56   28   29 2    
    57   28   30 1    
    58   30   31 1    
    59   30   32 1    
    60   30   92 1    
    61   31   93 1    
    62   31   94 1    
    63   31   95 1    
    64   32   33 am   BACKBONE|DICT|INTERRES
    65   32   96 1    
    66   33   34 2    
    67   33   35 1    
    68   35   36 1    
    69   35   37 1    
    70   35   97 1    
    71   36   98 1    
    72   36   99 1    
    73   36  100 1    
    74   37   38 am   BACKBONE|DICT|INTERRES
    75   37  101 1    
    76   38   39 2    
    77   38   40 1    
    78   40   41 1    
    79   40   42 1    
    80   40  102 1    
    81   41  103 1    
    82   41  104 1    
    83   41  105 1    
    84   42   43 am   BACKBONE|DICT|INTERRES
    85   42  106 1    
    86   43   44 2    
    87   43   45 1    
    88   45   46 1    
    89   45   49 1    
    90   45  107 1    
    91   46   47 1    
    92   46  108 1    
    93   46  109 1    
    94   47   48 1    
    95   48  110 1    
    96   48  111 1    
    97   49   50 am   BACKBONE|DICT|INTERRES
    98   49  112 1    
    99   50   51 2    
   100   50   52 1    
   101   52   53 1    
   102   52   54 1    
   103   52  113 1    
   104   53  114 1    
   105   53  115 1    
   106   53  116 1    
   107   54   55 am   BACKBONE|DICT|INTERRES
   108   54  117 1    
   109   55   56 2    
   110   55   57 1    
   111   57   58 1    
   112   57   59 1    
   113   57  118 1    
   114   58  119 1    
   115   58  120 1    
   116   58  121 1    
   117   59   60 am   BACKBONE|DICT|INTERRES
   118   59  122 1    
   119   60   61 2    
   120   60   62 1    
   121   62   63 1    
   122   62   64 1    
   123   62  123 1    
   124   63  124 1    
   125   63  125 1    
   126   63  126 1    
   127   64   65 am   BACKBONE|DICT|INTERRES
   128   64  127 1    
   129   65   66 2    
@<TRIPOS>SUBSTRUCTURE
     1 UNK         1 GROUP             0       ****    0 ROOT    
