@<TRIPOS>MOLECULE
3R135
127   129    1
SMALL
USER_CHARGES


@<TRIPOS>ATOM
      1 CA        -79.9353   21.8855  -71.2259 C.3       0 UNK        -0.1998 
      2 C         -80.2966   23.3164  -71.5923 C.2       0 UNK         0.4909 
      3 O         -79.5435   23.9582  -72.3247 O.2       0 UNK        -0.5240 
      4 N         -81.4588   23.7893  -71.1150 N.am      1 UNK        -0.4739 
      5 CA        -82.0562   25.1403  -71.1854 C.3       1 UNK         0.0864 
      6 C6        -81.3706   26.1584  -70.2301 C.3       11 UNK        -0.0881 
      7 S7        -79.8225   26.9070  -70.8472 S.3       11 UNK        -0.2682 
      8 C8        -80.3143   28.6517  -70.9940 C.3       11 UNK         0.0289 
      9 C9        -79.3348   29.4454  -71.8456 C.ar      11 UNK        -0.0687 
     10 C10       -79.7564   30.0157  -73.0493 C.ar      11 UNK        -0.0823 
     11 C11       -78.8718   30.7647  -73.8317 C.ar      11 UNK        -0.0830 
     12 C12       -77.5524   30.9409  -73.4022 C.ar      11 UNK        -0.1021 
     13 C13       -77.1176   30.3681  -72.2028 C.ar      11 UNK        -0.0753 
     14 C14       -78.0141   29.6278  -71.4263 C.ar      11 UNK        -0.0933 
     15 C15       -75.6826   30.5456  -71.7365 C.3       11 UNK         0.0166 
     16 S16       -74.6241   29.2100  -72.3677 S.3       11 UNK        -0.2615 
     17 C17       -73.2796   29.2516  -71.1329 C.3       11 UNK        -0.0865 
     18 CA        -72.0089   28.4684  -71.5535 C.3       10 UNK         0.0862 
     19 C         -72.2306   26.9249  -71.5643 C.2       10 UNK         0.5551 
     20 N         -72.0010   26.2157  -72.6635 N.am      10 UNK        -0.7319 
     21 O         -72.6007   26.3560  -70.5401 O.2       10 UNK        -0.5018 
     22 N         -71.4225   29.0225  -72.7814 N.am      10 UNK        -0.4509 
     23 C         -70.1329   28.9291  -73.1284 C.2       10 UNK         0.4899 
     24 O         -69.2616   28.4567  -72.3962 O.2       10 UNK        -0.4839 
     25 CA        -69.7603   29.4516  -74.5334 C.3       9 UNK         0.0222 
     26 CB        -68.4332   28.8580  -75.0526 C.3       9 UNK        -0.1966 
     27 N         -70.8253   29.2778  -75.5346 N.am      9 UNK        -0.4218 
     28 C         -71.4141   28.1263  -75.8945 C.2       9 UNK         0.5020 
     29 O         -71.1513   27.0365  -75.3787 O.2       9 UNK        -0.5274 
     30 CA        -72.5146   28.2435  -76.9662 C.3       8 UNK         0.0270 
     31 CB        -72.0331   28.9619  -78.2464 C.3       8 UNK        -0.1976 
     32 N         -73.1358   26.9525  -77.2767 N.am      8 UNK        -0.4313 
     33 C         -72.6110   25.9040  -77.9287 C.2       8 UNK         0.5041 
     34 O         -71.4959   25.8874  -78.4535 O.2       8 UNK        -0.5577 
     35 CA        -73.5003   24.6518  -78.0267 C.3       7 UNK         0.0284 
     36 CB        -73.3590   23.7922  -76.7599 C.3       7 UNK        -0.1958 
     37 N         -74.9130   24.9756  -78.2429 N.am      7 UNK        -0.4454 
     38 C         -75.4092   25.5154  -79.3654 C.2       7 UNK         0.5089 
     39 O         -74.7446   25.7208  -80.3817 O.2       7 UNK        -0.5125 
     40 CA        -76.8960   25.9139  -79.3459 C.3       6 UNK         0.0408 
     41 CB        -77.7953   24.6973  -79.6149 C.3       6 UNK        -0.1791 
     42 N         -77.2961   26.5573  -78.0919 N.am      6 UNK        -0.4762 
     43 C         -76.8350   27.7408  -77.6573 C.2       6 UNK         0.5007 
     44 O         -76.0459   28.4457  -78.2868 O.2       6 UNK        -0.5032 
     45 CA        -77.3259   28.1974  -76.2701 C.3       5 UNK         0.0783 
     46 C46       -78.7158   28.8812  -76.3668 C.3       11 UNK        -0.0857 
     47 S47       -78.5391   30.6820  -76.6108 S.3       11 UNK        -0.2512 
     48 C48       -79.3553   31.3824  -75.1380 C.3       11 UNK         0.0225 
     49 N         -77.3083   27.0920  -75.3089 N.am      5 UNK        -0.4615 
     50 C         -76.1911   26.5109  -74.8482 C.2       4 UNK         0.5053 
     51 O         -75.0578   26.8713  -75.1604 O.2       4 UNK        -0.5105 
     52 CA        -76.3649   25.2847  -73.9353 C.3       4 UNK         0.0263 
     53 CB        -76.5345   25.7243  -72.4742 C.3       4 UNK        -0.1981 
     54 N         -77.4925   24.4371  -74.3354 N.am      4 UNK        -0.4224 
     55 C         -77.5654   23.7946  -75.5117 C.2       3 UNK         0.4895 
     56 O         -76.6579   23.7879  -76.3418 O.2       3 UNK        -0.5091 
     57 CA        -78.8863   23.0858  -75.8530 C.3       3 UNK         0.0250 
     58 CB        -78.8902   21.6573  -75.2876 C.3       3 UNK        -0.1996 
     59 N         -80.0720   23.8049  -75.3815 N.am      3 UNK        -0.4254 
     60 C         -80.4187   25.0542  -75.7307 C.2       2 UNK         0.5004 
     61 O         -79.7905   25.7409  -76.5366 O.2       2 UNK        -0.5226 
     62 CA        -81.6362   25.6486  -75.0126 C.3       2 UNK         0.0269 
     63 CB        -82.9435   25.2172  -75.7035 C.3       2 UNK        -0.1926 
     64 N         -81.6115   25.2370  -73.6097 N.am      2 UNK        -0.4687 
     65 C         -82.3353   25.7177  -72.5980 C.2       1 UNK         0.5165 
     66 O         -83.2071   26.5771  -72.7359 O.2       1 UNK        -0.5079 
     67 H67       -80.0659   21.2312  -72.0868 H         1 UNK         0.0900 
     68 H68       -78.8934   21.8324  -70.9112 H         1 UNK         0.0900 
     69 H69       -80.5520   21.5060  -70.4115 H         1 UNK         0.0900 
     70 H70       -82.0189   23.1428  -70.5762 H         1 UNK         0.2959 
     71 H71       -83.0558   24.9836  -70.7759 H         1 UNK         0.1079 
     72 H72       -81.1509   25.6771  -69.2760 H         1 UNK         0.0837 
     73 H73       -82.0773   26.9535  -69.9861 H         1 UNK         0.0837 
     74 H74       -81.3167   28.7066  -71.4219 H         1 UNK         0.0685 
     75 H75       -80.3748   29.0947  -69.9990 H         1 UNK         0.0685 
     76 H76       -80.7777   29.8773  -73.3774 H         1 UNK         0.1434 
     77 H77       -76.8627   31.5135  -74.0073 H         1 UNK         0.1329 
     78 H78       -77.6825   29.1827  -70.4980 H         1 UNK         0.1335 
     79 H79       -75.6517   30.5572  -70.6457 H         1 UNK         0.0680 
     80 H80       -75.2882   31.5077  -72.0673 H         1 UNK         0.0680 
     81 H81       -73.6646   28.8740  -70.1836 H         1 UNK         0.1032 
     82 H82       -73.0120   30.2930  -70.9466 H         1 UNK         0.1032 
     83 H83       -71.2804   28.6342  -70.7573 H         1 UNK         0.0461 
     84 H84       -71.6923   26.6572  -73.5239 H         1 UNK         0.3453 
     85 H85       -72.1434   25.2197  -72.6402 H         1 UNK         0.3453 
     86 H86       -72.0811   29.4000  -73.4464 H         1 UNK         0.2984 
     87 H87       -69.6183   30.5276  -74.4242 H         1 UNK         0.0554 
     88 H88       -67.6064   29.0954  -74.3819 H         1 UNK         0.0847 
     89 H89       -68.1758   29.2575  -76.0335 H         1 UNK         0.0847 
     90 H90       -68.4828   27.7717  -75.1358 H         1 UNK         0.0847 
     91 H91       -71.1311   30.1268  -75.9903 H         1 UNK         0.3141 
     92 H92       -73.3126   28.8437  -76.5261 H         1 UNK         0.0743 
     93 H93       -71.1410   28.4947  -78.6646 H         1 UNK         0.0784 
     94 H94       -72.8063   28.9543  -79.0152 H         1 UNK         0.0784 
     95 H95       -71.7898   30.0063  -78.0510 H         1 UNK         0.0784 
     96 H96       -74.0157   26.8003  -76.7909 H         1 UNK         0.3213 
     97 H97       -73.1556   24.0633  -78.8797 H         1 UNK         0.0855 
     98 H98       -73.7049   24.3237  -75.8725 H         1 UNK         0.0814 
     99 H99       -72.3171   23.5176  -76.5896 H         1 UNK         0.0814 
    100 H100      -73.9312   22.8679  -76.8408 H         1 UNK         0.0814 
    101 H101      -75.5556   24.7584  -77.4834 H         1 UNK         0.3105 
    102 H102      -77.0572   26.6352  -80.1498 H         1 UNK         0.0547 
    103 H103      -78.8488   24.9771  -79.6336 H         1 UNK         0.0837 
    104 H104      -77.6675   23.9229  -78.8590 H         1 UNK         0.0837 
    105 H105      -77.5612   24.2484  -80.5810 H         1 UNK         0.0837 
    106 H106      -77.9778   26.0706  -77.5181 H         1 UNK         0.3020 
    107 H107      -76.6001   28.9252  -75.8975 H         1 UNK         0.1245 
    108 H108      -79.2989   28.6928  -75.4660 H         1 UNK         0.0781 
    109 H109      -79.3226   28.4718  -77.1774 H         1 UNK         0.0781 
    110 H110      -80.4340   31.2598  -75.2485 H         1 UNK         0.0836 
    111 H111      -79.1744   32.4578  -75.1130 H         1 UNK         0.0836 
    112 H112      -78.2026   26.6955  -75.0600 H         1 UNK         0.3022 
    113 H113      -75.4564   24.6832  -74.0066 H         1 UNK         0.0747 
    114 H114      -76.6767   24.8706  -71.8114 H         1 UNK         0.0793 
    115 H115      -75.6527   26.2647  -72.1272 H         1 UNK         0.0793 
    116 H116      -77.3897   26.3892  -72.3546 H         1 UNK         0.0793 
    117 H117      -78.2644   24.3537  -73.6768 H         1 UNK         0.3047 
    118 H118      -78.9554   23.0238  -76.9407 H         1 UNK         0.0822 
    119 H119      -79.7923   21.1166  -75.5744 H         1 UNK         0.0807 
    120 H120      -78.8253   21.6545  -74.1991 H         1 UNK         0.0807 
    121 H121      -78.0393   21.0881  -75.6649 H         1 UNK         0.0807 
    122 H122      -80.6619   23.3116  -74.7282 H         1 UNK         0.2946 
    123 H123      -81.5506   26.7367  -75.0548 H         1 UNK         0.1144 
    124 H124      -83.1010   24.1403  -75.6344 H         1 UNK         0.0793 
    125 H125      -82.9284   25.4792  -76.7624 H         1 UNK         0.0793 
    126 H126      -83.8105   25.7105  -75.2647 H         1 UNK         0.0793 
    127 H127      -80.8337   24.6412  -73.3300 H         1 UNK         0.2896 
@<TRIPOS>BOND
     1    1    2 1    
     2    1   67 1    
     3    1   68 1    
     4    1   69 1    
     5    2    3 2    
     6    2    4 am   BACKBONE|DICT|INTERRES
     7    4    5 1    
     8    4   70 1    
     9    5    6 1    
    10    5   65 1    
    11    5   71 1    
    12    6    7 1    
    13    6   72 1    
    14    6   73 1    
    15    7    8 1    
    16    8    9 1    
    17    8   74 1    
    18    8   75 1    
    19    9   10 ar   
    20    9   14 ar   
    21   10   11 ar   
    22   10   76 1    
    23   11   12 ar   
    24   11   48 1    
    25   12   13 ar   
    26   12   77 1    
    27   13   14 ar   
    28   13   15 1    
    29   14   78 1    
    30   15   16 1    
    31   15   79 1    
    32   15   80 1    
    33   16   17 1    
    34   17   18 1    
    35   17   81 1    
    36   17   82 1    
    37   18   19 1    
    38   18   22 1    
    39   18   83 1    
    40   19   20 am   BACKBONE|DICT|INTERRES
    41   19   21 2    
    42   20   84 1    
    43   20   85 1    
    44   22   23 am   BACKBONE|DICT|INTERRES
    45   22   86 1    
    46   23   24 2    
    47   23   25 1    
    48   25   26 1    
    49   25   27 1    
    50   25   87 1    
    51   26   88 1    
    52   26   89 1    
    53   26   90 1    
    54   27   28 am   BACKBONE|DICT|INTERRES
    55   27   91 1    
    56   28   29 2    
    57   28   30 1    
    58   30   31 1    
    59   30   32 1    
    60   30   92 1    
    61   31   93 1    
    62   31   94 1    
    63   31   95 1    
    64   32   33 am   BACKBONE|DICT|INTERRES
    65   32   96 1    
    66   33   34 2    
    67   33   35 1    
    68   35   36 1    
    69   35   37 1    
    70   35   97 1    
    71   36   98 1    
    72   36   99 1    
    73   36  100 1    
    74   37   38 am   BACKBONE|DICT|INTERRES
    75   37  101 1    
    76   38   39 2    
    77   38   40 1    
    78   40   41 1    
    79   40   42 1    
    80   40  102 1    
    81   41  103 1    
    82   41  104 1    
    83   41  105 1    
    84   42   43 am   BACKBONE|DICT|INTERRES
    85   42  106 1    
    86   43   44 2    
    87   43   45 1    
    88   45   46 1    
    89   45   49 1    
    90   45  107 1    
    91   46   47 1    
    92   46  108 1    
    93   46  109 1    
    94   47   48 1    
    95   48  110 1    
    96   48  111 1    
    97   49   50 am   BACKBONE|DICT|INTERRES
    98   49  112 1    
    99   50   51 2    
   100   50   52 1    
   101   52   53 1    
   102   52   54 1    
   103   52  113 1    
   104   53  114 1    
   105   53  115 1    
   106   53  116 1    
   107   54   55 am   BACKBONE|DICT|INTERRES
   108   54  117 1    
   109   55   56 2    
   110   55   57 1    
   111   57   58 1    
   112   57   59 1    
   113   57  118 1    
   114   58  119 1    
   115   58  120 1    
   116   58  121 1    
   117   59   60 am   BACKBONE|DICT|INTERRES
   118   59  122 1    
   119   60   61 2    
   120   60   62 1    
   121   62   63 1    
   122   62   64 1    
   123   62  123 1    
   124   63  124 1    
   125   63  125 1    
   126   63  126 1    
   127   64   65 am   BACKBONE|DICT|INTERRES
   128   64  127 1    
   129   65   66 2    
@<TRIPOS>SUBSTRUCTURE
     1 UNK         1 GROUP             0       ****    0 ROOT    
