@<TRIPOS>MOLECULE
3R135
127   129    1
SMALL
USER_CHARGES


@<TRIPOS>ATOM
      1 CA        -76.7315   23.1218  -69.1832 C.3       0 UNK        -0.1998 
      2 C         -77.6037   23.6622  -70.3058 C.2       0 UNK         0.4909 
      3 O         -77.4093   23.2890  -71.4620 O.2       0 UNK        -0.5240 
      4 N         -78.5810   24.5157  -69.9686 N.am      1 UNK        -0.4739 
      5 CA        -79.5141   25.2374  -70.8561 C.3       1 UNK         0.0864 
      6 C6        -78.8095   26.1784  -71.8710 C.3       11 UNK        -0.0881 
      7 S7        -77.8170   27.4584  -71.0298 S.3       11 UNK        -0.2682 
      8 C8        -78.8695   28.9321  -71.2276 C.3       11 UNK         0.0289 
      9 C9        -78.7594   29.5149  -72.6288 C.ar      11 UNK        -0.0687 
     10 C10       -79.8104   29.3930  -73.5413 C.ar      11 UNK        -0.0823 
     11 C11       -79.6967   29.9309  -74.8269 C.ar      11 UNK        -0.0830 
     12 C12       -78.5192   30.5895  -75.1986 C.ar      11 UNK        -0.1021 
     13 C13       -77.4510   30.6987  -74.3020 C.ar      11 UNK        -0.0753 
     14 C14       -77.5928   30.1804  -73.0109 C.ar      11 UNK        -0.0933 
     15 C15       -76.1540   31.3775  -74.7334 C.3       11 UNK         0.0166 
     16 S16       -74.6981   30.2888  -74.5485 S.3       11 UNK        -0.2615 
     17 C17       -74.1829   30.6352  -72.8262 C.3       11 UNK        -0.0865 
     18 CA        -72.6636   30.9196  -72.6992 C.3       10 UNK         0.0862 
     19 C         -72.3229   31.5393  -71.3109 C.2       10 UNK         0.5551 
     20 N         -71.5240   30.8954  -70.4682 N.am      10 UNK        -0.7319 
     21 O         -72.7900   32.6312  -70.9968 O.2       10 UNK        -0.5018 
     22 N         -71.8752   29.7259  -73.0424 N.am      10 UNK        -0.4509 
     23 C         -70.5974   29.7263  -73.4414 C.2       10 UNK         0.4899 
     24 O         -69.9252   30.7491  -73.5786 O.2       10 UNK        -0.4839 
     25 CA        -69.9422   28.3578  -73.7249 C.3       9 UNK         0.0222 
     26 CB        -68.8917   28.0337  -72.6489 C.3       9 UNK        -0.1966 
     27 N         -70.8855   27.2354  -73.8225 N.am      9 UNK        -0.4218 
     28 C         -71.7776   27.0688  -74.8078 C.2       9 UNK         0.5020 
     29 O         -71.9140   27.8600  -75.7444 O.2       9 UNK        -0.5274 
     30 CA        -72.6937   25.8354  -74.6903 C.3       8 UNK         0.0270 
     31 CB        -73.7894   26.0761  -73.6357 C.3       8 UNK        -0.1976 
     32 N         -73.3408   25.5376  -75.9655 N.am      8 UNK        -0.4313 
     33 C         -72.7227   25.0642  -77.0572 C.2       8 UNK         0.5041 
     34 O         -71.5813   24.6003  -77.0574 O.2       8 UNK        -0.5577 
     35 CA        -73.4971   25.1774  -78.3798 C.3       7 UNK         0.0284 
     36 CB        -74.4461   23.9836  -78.5713 C.3       7 UNK        -0.1958 
     37 N         -74.2554   26.4302  -78.4034 N.am      7 UNK        -0.4454 
     38 C         -73.7690   27.6074  -78.8212 C.2       7 UNK         0.5089 
     39 O         -72.6997   27.7217  -79.4225 O.2       7 UNK        -0.5125 
     40 CA        -74.5777   28.8816  -78.4877 C.3       6 UNK         0.0408 
     41 CB        -74.7595   29.7934  -79.7191 C.3       6 UNK        -0.1791 
     42 N         -75.8569   28.6391  -77.8038 N.am      6 UNK        -0.4762 
     43 C         -76.9528   28.0464  -78.3013 C.2       6 UNK         0.5007 
     44 O         -77.0610   27.6496  -79.4626 O.2       6 UNK        -0.5032 
     45 CA        -78.1014   27.7940  -77.3082 C.3       5 UNK         0.0783 
     46 C46       -79.4308   28.3969  -77.8255 C.3       11 UNK        -0.0857 
     47 S47       -80.8127   28.1755  -76.6530 S.3       11 UNK        -0.2512 
     48 C48       -80.8474   29.7903  -75.8120 C.3       11 UNK         0.0225 
     49 N         -78.2261   26.3678  -77.0098 N.am      5 UNK        -0.4615 
     50 C         -77.3006   25.5959  -76.4306 C.2       4 UNK         0.5053 
     51 O         -76.1686   25.9958  -76.1487 O.2       4 UNK        -0.5105 
     52 CA        -77.7033   24.1418  -76.1071 C.3       4 UNK         0.0263 
     53 CB        -76.7977   23.5189  -75.0278 C.3       4 UNK        -0.1981 
     54 N         -79.1010   24.0137  -75.6782 N.am      4 UNK        -0.4224 
     55 C         -80.1748   23.9919  -76.4813 C.2       3 UNK         0.4895 
     56 O         -80.0979   24.1215  -77.7036 O.2       3 UNK        -0.5091 
     57 CA        -81.5634   23.8604  -75.8202 C.3       3 UNK         0.0250 
     58 CB        -82.5346   23.0073  -76.6637 C.3       3 UNK        -0.1996 
     59 N         -81.5311   23.3990  -74.4250 N.am      3 UNK        -0.4254 
     60 C         -81.1099   22.2161  -73.9536 C.2       2 UNK         0.5004 
     61 O         -80.6862   21.3029  -74.6637 O.2       2 UNK        -0.5226 
     62 CA        -81.1228   22.0620  -72.4202 C.3       2 UNK         0.0269 
     63 CB        -80.6835   20.6593  -71.9600 C.3       2 UNK        -0.1926 
     64 N         -80.2621   23.0567  -71.7734 N.am      2 UNK        -0.4687 
     65 C         -80.5593   24.3451  -71.5634 C.2       1 UNK         0.5165 
     66 O         -81.6306   24.8439  -71.9122 O.2       1 UNK        -0.5079 
     67 H67       -77.0185   23.5252  -68.2123 H         1 UNK         0.0900 
     68 H68       -75.6887   23.3815  -69.3633 H         1 UNK         0.0900 
     69 H69       -76.8095   22.0360  -69.1369 H         1 UNK         0.0900 
     70 H70       -78.6928   24.7404  -68.9895 H         1 UNK         0.2959 
     71 H71       -80.1025   25.8705  -70.1894 H         1 UNK         0.1079 
     72 H72       -78.1519   25.6154  -72.5348 H         1 UNK         0.0837 
     73 H73       -79.5381   26.6649  -72.5218 H         1 UNK         0.0837 
     74 H74       -79.9034   28.6824  -70.9835 H         1 UNK         0.0685 
     75 H75       -78.5581   29.6853  -70.5025 H         1 UNK         0.0685 
     76 H76       -80.7167   28.8768  -73.2547 H         1 UNK         0.1434 
     77 H77       -78.4291   31.0012  -76.1946 H         1 UNK         0.1329 
     78 H78       -76.7882   30.2689  -72.2978 H         1 UNK         0.1335 
     79 H79       -76.2150   31.6697  -75.7828 H         1 UNK         0.0680 
     80 H80       -76.0174   32.3034  -74.1737 H         1 UNK         0.0680 
     81 H81       -74.4634   29.7874  -72.1987 H         1 UNK         0.1032 
     82 H82       -74.7546   31.4864  -72.4524 H         1 UNK         0.1032 
     83 H83       -72.4162   31.6935  -73.4285 H         1 UNK         0.0461 
     84 H84       -71.1317   30.0028  -70.7189 H         1 UNK         0.3453 
     85 H85       -71.3089   31.3107  -69.5753 H         1 UNK         0.3453 
     86 H86       -72.3541   28.8418  -72.9729 H         1 UNK         0.2984 
     87 H87       -69.4279   28.4441  -74.6844 H         1 UNK         0.0554 
     88 H88       -68.3506   27.1170  -72.8843 H         1 UNK         0.0847 
     89 H89       -69.3437   27.9147  -71.6636 H         1 UNK         0.0847 
     90 H90       -68.1506   28.8308  -72.5720 H         1 UNK         0.0847 
     91 H91       -70.8428   26.5451  -73.0858 H         1 UNK         0.3141 
     92 H92       -72.0910   24.9738  -74.3958 H         1 UNK         0.0743 
     93 H93       -73.3613   26.2555  -72.6489 H         1 UNK         0.0784 
     94 H94       -74.4497   25.2130  -73.5465 H         1 UNK         0.0784 
     95 H95       -74.4077   26.9398  -73.8870 H         1 UNK         0.0784 
     96 H96       -74.2994   25.8633  -76.0579 H         1 UNK         0.3213 
     97 H97       -72.7750   25.1713  -79.1993 H         1 UNK         0.0855 
     98 H98       -73.8852   23.0495  -78.6213 H         1 UNK         0.0814 
     99 H99       -75.0129   24.0720  -79.4983 H         1 UNK         0.0814 
    100 H100      -75.1557   23.8898  -77.7509 H         1 UNK         0.0814 
    101 H101      -75.1284   26.4416  -77.8901 H         1 UNK         0.3105 
    102 H102      -73.9685   29.4297  -77.7671 H         1 UNK         0.0547 
    103 H103      -75.2924   29.2896  -80.5257 H         1 UNK         0.0837 
    104 H104      -73.7937   30.1045  -80.1189 H         1 UNK         0.0837 
    105 H105      -75.3093   30.6995  -79.4654 H         1 UNK         0.0837 
    106 H106      -75.8528   28.8786  -76.8204 H         1 UNK         0.3020 
    107 H107      -77.8491   28.2792  -76.3647 H         1 UNK         0.1245 
    108 H108      -79.7197   27.9265  -78.7675 H         1 UNK         0.0781 
    109 H109      -79.3127   29.4591  -78.0469 H         1 UNK         0.0781 
    110 H110      -81.7956   29.8880  -75.2810 H         1 UNK         0.0836 
    111 H111      -80.8317   30.5960  -76.5476 H         1 UNK         0.0836 
    112 H112      -79.1031   25.9348  -77.2707 H         1 UNK         0.3022 
    113 H113      -77.5718   23.5660  -77.0254 H         1 UNK         0.0747 
    114 H114      -77.0846   22.4895  -74.8121 H         1 UNK         0.0793 
    115 H115      -75.7546   23.5007  -75.3461 H         1 UNK         0.0793 
    116 H116      -76.8410   24.0802  -74.0936 H         1 UNK         0.0793 
    117 H117      -79.2562   23.9221  -74.6857 H         1 UNK         0.3047 
    118 H118      -81.9660   24.8741  -75.7866 H         1 UNK         0.0822 
    119 H119      -83.5166   22.9431  -76.1950 H         1 UNK         0.0807 
    120 H120      -82.1634   21.9921  -76.8071 H         1 UNK         0.0807 
    121 H121      -82.6793   23.4411  -77.6540 H         1 UNK         0.0807 
    122 H122      -81.8188   24.0831  -73.7300 H         1 UNK         0.2946 
    123 H123      -82.1530   22.2149  -72.0895 H         1 UNK         0.1144 
    124 H124      -81.3152   19.8867  -72.4006 H         1 UNK         0.0793 
    125 H125      -80.7567   20.5566  -70.8772 H         1 UNK         0.0793 
    126 H126      -79.6536   20.4441  -72.2480 H         1 UNK         0.0793 
    127 H127      -79.3163   22.7668  -71.5455 H         1 UNK         0.2896 
@<TRIPOS>BOND
     1    1    2 1    
     2    1   67 1    
     3    1   68 1    
     4    1   69 1    
     5    2    3 2    
     6    2    4 am   BACKBONE|DICT|INTERRES
     7    4    5 1    
     8    4   70 1    
     9    5    6 1    
    10    5   65 1    
    11    5   71 1    
    12    6    7 1    
    13    6   72 1    
    14    6   73 1    
    15    7    8 1    
    16    8    9 1    
    17    8   74 1    
    18    8   75 1    
    19    9   10 ar   
    20    9   14 ar   
    21   10   11 ar   
    22   10   76 1    
    23   11   12 ar   
    24   11   48 1    
    25   12   13 ar   
    26   12   77 1    
    27   13   14 ar   
    28   13   15 1    
    29   14   78 1    
    30   15   16 1    
    31   15   79 1    
    32   15   80 1    
    33   16   17 1    
    34   17   18 1    
    35   17   81 1    
    36   17   82 1    
    37   18   19 1    
    38   18   22 1    
    39   18   83 1    
    40   19   20 am   BACKBONE|DICT|INTERRES
    41   19   21 2    
    42   20   84 1    
    43   20   85 1    
    44   22   23 am   BACKBONE|DICT|INTERRES
    45   22   86 1    
    46   23   24 2    
    47   23   25 1    
    48   25   26 1    
    49   25   27 1    
    50   25   87 1    
    51   26   88 1    
    52   26   89 1    
    53   26   90 1    
    54   27   28 am   BACKBONE|DICT|INTERRES
    55   27   91 1    
    56   28   29 2    
    57   28   30 1    
    58   30   31 1    
    59   30   32 1    
    60   30   92 1    
    61   31   93 1    
    62   31   94 1    
    63   31   95 1    
    64   32   33 am   BACKBONE|DICT|INTERRES
    65   32   96 1    
    66   33   34 2    
    67   33   35 1    
    68   35   36 1    
    69   35   37 1    
    70   35   97 1    
    71   36   98 1    
    72   36   99 1    
    73   36  100 1    
    74   37   38 am   BACKBONE|DICT|INTERRES
    75   37  101 1    
    76   38   39 2    
    77   38   40 1    
    78   40   41 1    
    79   40   42 1    
    80   40  102 1    
    81   41  103 1    
    82   41  104 1    
    83   41  105 1    
    84   42   43 am   BACKBONE|DICT|INTERRES
    85   42  106 1    
    86   43   44 2    
    87   43   45 1    
    88   45   46 1    
    89   45   49 1    
    90   45  107 1    
    91   46   47 1    
    92   46  108 1    
    93   46  109 1    
    94   47   48 1    
    95   48  110 1    
    96   48  111 1    
    97   49   50 am   BACKBONE|DICT|INTERRES
    98   49  112 1    
    99   50   51 2    
   100   50   52 1    
   101   52   53 1    
   102   52   54 1    
   103   52  113 1    
   104   53  114 1    
   105   53  115 1    
   106   53  116 1    
   107   54   55 am   BACKBONE|DICT|INTERRES
   108   54  117 1    
   109   55   56 2    
   110   55   57 1    
   111   57   58 1    
   112   57   59 1    
   113   57  118 1    
   114   58  119 1    
   115   58  120 1    
   116   58  121 1    
   117   59   60 am   BACKBONE|DICT|INTERRES
   118   59  122 1    
   119   60   61 2    
   120   60   62 1    
   121   62   63 1    
   122   62   64 1    
   123   62  123 1    
   124   63  124 1    
   125   63  125 1    
   126   63  126 1    
   127   64   65 am   BACKBONE|DICT|INTERRES
   128   64  127 1    
   129   65   66 2    
@<TRIPOS>SUBSTRUCTURE
     1 UNK         1 GROUP             0       ****    0 ROOT    
