@<TRIPOS>MOLECULE
3R135
127   129    1
SMALL
USER_CHARGES


@<TRIPOS>ATOM
      1 CA        -82.1676   29.6693  -76.0029 C.3       0 UNK        -0.1998 
      2 C         -81.3628   28.6333  -75.2341 C.2       0 UNK         0.4909 
      3 O         -81.3754   27.4593  -75.6046 O.2       0 UNK        -0.5240 
      4 N         -80.6539   29.0652  -74.1796 N.am      1 UNK        -0.4739 
      5 CA        -79.8203   28.2461  -73.2857 C.3       1 UNK         0.0864 
      6 C6        -80.6643   27.4029  -72.2838 C.3       11 UNK        -0.0881 
      7 S7        -81.0853   28.3727  -70.7978 S.3       11 UNK        -0.2682 
      8 C8        -79.8343   27.7734  -69.6060 C.3       11 UNK         0.0289 
      9 C9        -78.4153   27.8827  -70.1526 C.ar      11 UNK        -0.0687 
     10 C10       -77.6701   26.7284  -70.4287 C.ar      11 UNK        -0.0823 
     11 C11       -76.3937   26.8266  -70.9925 C.ar      11 UNK        -0.0830 
     12 C12       -75.8703   28.0888  -71.2779 C.ar      11 UNK        -0.1021 
     13 C13       -76.6046   29.2470  -71.0146 C.ar      11 UNK        -0.0753 
     14 C14       -77.8666   29.1404  -70.4260 C.ar      11 UNK        -0.0933 
     15 C15       -76.0465   30.6001  -71.4226 C.3       11 UNK         0.0166 
     16 S16       -76.2756   30.8367  -73.2105 S.3       11 UNK        -0.2615 
     17 C17       -75.4142   32.4106  -73.5732 C.3       11 UNK        -0.0865 
     18 CA        -73.8827   32.4945  -73.2645 C.3       10 UNK         0.0862 
     19 C         -73.5674   33.0756  -71.8599 C.2       10 UNK         0.5551 
     20 N         -73.9722   34.3090  -71.5902 N.am      10 UNK        -0.7319 
     21 O         -72.9567   32.4242  -71.0131 O.2       10 UNK        -0.5018 
     22 N         -73.1474   31.2437  -73.4832 N.am      10 UNK        -0.4509 
     23 C         -72.9636   30.6070  -74.6424 C.2       10 UNK         0.4899 
     24 O         -73.3804   31.0158  -75.7286 O.2       10 UNK        -0.4839 
     25 CA        -72.1763   29.2887  -74.5481 C.3       9 UNK         0.0222 
     26 CB        -72.8292   28.3119  -73.5533 C.3       9 UNK        -0.1966 
     27 N         -72.1077   28.6130  -75.8393 N.am      9 UNK        -0.4218 
     28 C         -71.0430   28.5340  -76.6406 C.2       9 UNK         0.5020 
     29 O         -69.9697   29.0995  -76.4202 O.2       9 UNK        -0.5274 
     30 CA        -71.2024   27.6098  -77.8667 C.3       8 UNK         0.0270 
     31 CB        -69.9545   27.5974  -78.7700 C.3       8 UNK        -0.1976 
     32 N         -71.5133   26.2323  -77.4604 N.am      8 UNK        -0.4313 
     33 C         -72.7113   25.8074  -77.0384 C.2       8 UNK         0.5041 
     34 O         -73.7046   26.5335  -76.9799 O.2       8 UNK        -0.5577 
     35 CA        -72.8002   24.3653  -76.5351 C.3       7 UNK         0.0284 
     36 CB        -72.4247   24.2884  -75.0444 C.3       7 UNK        -0.1958 
     37 N         -74.1646   23.8748  -76.7158 N.am      7 UNK        -0.4454 
     38 C         -74.4877   22.6077  -76.9930 C.2       7 UNK         0.5089 
     39 O         -73.6605   21.7011  -77.1152 O.2       7 UNK        -0.5125 
     40 CA        -75.9899   22.3126  -77.1499 C.3       6 UNK         0.0408 
     41 CB        -76.2846   20.8586  -77.5750 C.3       6 UNK        -0.1791 
     42 N         -76.7538   22.6682  -75.9504 N.am      6 UNK        -0.4762 
     43 C         -76.6353   22.1670  -74.7098 C.2       6 UNK         0.5007 
     44 O         -75.8162   21.3040  -74.3906 O.2       6 UNK        -0.5032 
     45 CA        -77.6309   22.6811  -73.6447 C.3       5 UNK         0.0783 
     46 C46       -76.9610   23.4589  -72.4810 C.3       11 UNK        -0.0857 
     47 S47       -75.9374   24.8974  -72.9451 S.3       11 UNK        -0.2512 
     48 C48       -75.5670   25.5837  -71.2968 C.3       11 UNK         0.0225 
     49 N         -78.7689   23.4009  -74.2310 N.am      5 UNK        -0.4615 
     50 C         -79.8333   22.7901  -74.7731 C.2       4 UNK         0.5053 
     51 O         -79.9759   21.5672  -74.8041 O.2       4 UNK        -0.5105 
     52 CA        -80.9227   23.6807  -75.3906 C.3       4 UNK         0.0263 
     53 CB        -81.8104   24.2899  -74.2953 C.3       4 UNK        -0.1981 
     54 N         -80.3785   24.7420  -76.2387 N.am      4 UNK        -0.4224 
     55 C         -79.7836   24.5358  -77.4227 C.2       3 UNK         0.4895 
     56 O         -79.6360   23.4256  -77.9337 O.2       3 UNK        -0.5091 
     57 CA        -79.2561   25.7744  -78.1635 C.3       3 UNK         0.0250 
     58 CB        -80.3886   26.4867  -78.9209 C.3       3 UNK        -0.1996 
     59 N         -78.5956   26.7167  -77.2612 N.am      3 UNK        -0.4254 
     60 C         -77.3895   26.5128  -76.7131 C.2       2 UNK         0.5004 
     61 O         -76.6869   25.5307  -76.9508 O.2       2 UNK        -0.5226 
     62 CA        -76.8984   27.5732  -75.7126 C.3       2 UNK         0.0269 
     63 CB        -76.2122   28.7315  -76.4558 C.3       2 UNK        -0.1926 
     64 N         -77.9535   28.1260  -74.8571 N.am      2 UNK        -0.4687 
     65 C         -78.7769   27.4207  -74.0674 C.2       1 UNK         0.5165 
     66 O         -78.7741   26.1923  -73.9963 O.2       1 UNK        -0.5079 
     67 H67       -82.0573   30.6683  -75.5817 H         1 UNK         0.0900 
     68 H68       -81.8418   29.7004  -77.0423 H         1 UNK         0.0900 
     69 H69       -83.2252   29.4081  -75.9853 H         1 UNK         0.0900 
     70 H70       -80.6892   30.0471  -73.9430 H         1 UNK         0.2959 
     71 H71       -79.2200   28.9557  -72.7178 H         1 UNK         0.1079 
     72 H72       -80.1465   26.5013  -71.9534 H         1 UNK         0.0837 
     73 H73       -81.5875   27.0554  -72.7486 H         1 UNK         0.0837 
     74 H74       -80.0677   26.7417  -69.3380 H         1 UNK         0.0685 
     75 H75       -79.9120   28.3550  -68.6864 H         1 UNK         0.0685 
     76 H76       -78.0889   25.7530  -70.2235 H         1 UNK         0.1434 
     77 H77       -74.8944   28.1715  -71.7282 H         1 UNK         0.1329 
     78 H78       -78.4473   30.0318  -70.2308 H         1 UNK         0.1335 
     79 H79       -76.5329   31.4095  -70.8761 H         1 UNK         0.0680 
     80 H80       -74.9867   30.6358  -71.1726 H         1 UNK         0.0680 
     81 H81       -75.9679   33.2231  -73.1000 H         1 UNK         0.1032 
     82 H82       -75.5468   32.5776  -74.6431 H         1 UNK         0.1032 
     83 H83       -73.4485   33.2148  -73.9607 H         1 UNK         0.0461 
     84 H84       -74.4561   34.8654  -72.2776 H         1 UNK         0.3453 
     85 H85       -73.7726   34.7003  -70.6828 H         1 UNK         0.3453 
     86 H86       -72.7409   30.8678  -72.6366 H         1 UNK         0.2984 
     87 H87       -71.1705   29.5244  -74.1947 H         1 UNK         0.0554 
     88 H88       -72.8040   28.7028  -72.5362 H         1 UNK         0.0847 
     89 H89       -72.3057   27.3556  -73.5352 H         1 UNK         0.0847 
     90 H90       -73.8702   28.1138  -73.8144 H         1 UNK         0.0847 
     91 H91       -72.9396   28.1068  -76.1334 H         1 UNK         0.3141 
     92 H92       -72.0349   27.9986  -78.4576 H         1 UNK         0.0743 
     93 H93       -69.0782   27.2140  -78.2458 H         1 UNK         0.0784 
     94 H94       -70.1123   26.9820  -79.6559 H         1 UNK         0.0784 
     95 H95       -69.7136   28.6036  -79.1160 H         1 UNK         0.0784 
     96 H96       -70.7343   25.5895  -77.4328 H         1 UNK         0.3213 
     97 H97       -72.1071   23.7562  -77.1196 H         1 UNK         0.0855 
     98 H98       -73.0964   24.8915  -74.4316 H         1 UNK         0.0814 
     99 H99       -71.4105   24.6508  -74.8727 H         1 UNK         0.0814 
    100 H100      -72.4704   23.2631  -74.6766 H         1 UNK         0.0814 
    101 H101      -74.8944   24.5863  -76.6939 H         1 UNK         0.3105 
    102 H102      -76.3529   22.9630  -77.9470 H         1 UNK         0.0547 
    103 H103      -77.3533   20.6983  -77.7179 H         1 UNK         0.0837 
    104 H104      -75.9324   20.1374  -76.8369 H         1 UNK         0.0837 
    105 H105      -75.7922   20.6225  -78.5189 H         1 UNK         0.0837 
    106 H106      -77.4197   23.4189  -76.0796 H         1 UNK         0.3020 
    107 H107      -78.0340   21.7739  -73.1879 H         1 UNK         0.1245 
    108 H108      -76.3261   22.7771  -71.9122 H         1 UNK         0.0781 
    109 H109      -77.7299   23.7950  -71.7838 H         1 UNK         0.0781 
    110 H110      -74.5044   25.8284  -71.2588 H         1 UNK         0.0836 
    111 H111      -75.7239   24.8303  -70.5236 H         1 UNK         0.0836 
    112 H112      -78.7270   24.4209  -74.2092 H         1 UNK         0.3022 
    113 H113      -81.5537   23.0479  -76.0184 H         1 UNK         0.0747 
    114 H114      -82.5938   24.9185  -74.7193 H         1 UNK         0.0793 
    115 H115      -82.2976   23.5096  -73.7094 H         1 UNK         0.0793 
    116 H116      -81.2279   24.8985  -73.6054 H         1 UNK         0.0793 
    117 H117      -80.4839   25.6952  -75.9008 H         1 UNK         0.3047 
    118 H118      -78.5218   25.4341  -78.8973 H         1 UNK         0.0822 
    119 H119      -80.0099   27.3292  -79.4998 H         1 UNK         0.0807 
    120 H120      -81.1578   26.8623  -78.2453 H         1 UNK         0.0807 
    121 H121      -80.8753   25.8062  -79.6208 H         1 UNK         0.0807 
    122 H122      -79.1260   27.5250  -76.9700 H         1 UNK         0.2946 
    123 H123      -76.1628   27.0887  -75.0669 H         1 UNK         0.1144 
    124 H124      -75.6791   29.3836  -75.7650 H         1 UNK         0.0793 
    125 H125      -76.9288   29.3399  -77.0081 H         1 UNK         0.0793 
    126 H126      -75.4815   28.3657  -77.1768 H         1 UNK         0.0793 
    127 H127      -78.0348   29.1325  -74.8476 H         1 UNK         0.2896 
@<TRIPOS>BOND
     1    1    2 1    
     2    1   67 1    
     3    1   68 1    
     4    1   69 1    
     5    2    3 2    
     6    2    4 am   BACKBONE|DICT|INTERRES
     7    4    5 1    
     8    4   70 1    
     9    5    6 1    
    10    5   65 1    
    11    5   71 1    
    12    6    7 1    
    13    6   72 1    
    14    6   73 1    
    15    7    8 1    
    16    8    9 1    
    17    8   74 1    
    18    8   75 1    
    19    9   10 ar   
    20    9   14 ar   
    21   10   11 ar   
    22   10   76 1    
    23   11   12 ar   
    24   11   48 1    
    25   12   13 ar   
    26   12   77 1    
    27   13   14 ar   
    28   13   15 1    
    29   14   78 1    
    30   15   16 1    
    31   15   79 1    
    32   15   80 1    
    33   16   17 1    
    34   17   18 1    
    35   17   81 1    
    36   17   82 1    
    37   18   19 1    
    38   18   22 1    
    39   18   83 1    
    40   19   20 am   BACKBONE|DICT|INTERRES
    41   19   21 2    
    42   20   84 1    
    43   20   85 1    
    44   22   23 am   BACKBONE|DICT|INTERRES
    45   22   86 1    
    46   23   24 2    
    47   23   25 1    
    48   25   26 1    
    49   25   27 1    
    50   25   87 1    
    51   26   88 1    
    52   26   89 1    
    53   26   90 1    
    54   27   28 am   BACKBONE|DICT|INTERRES
    55   27   91 1    
    56   28   29 2    
    57   28   30 1    
    58   30   31 1    
    59   30   32 1    
    60   30   92 1    
    61   31   93 1    
    62   31   94 1    
    63   31   95 1    
    64   32   33 am   BACKBONE|DICT|INTERRES
    65   32   96 1    
    66   33   34 2    
    67   33   35 1    
    68   35   36 1    
    69   35   37 1    
    70   35   97 1    
    71   36   98 1    
    72   36   99 1    
    73   36  100 1    
    74   37   38 am   BACKBONE|DICT|INTERRES
    75   37  101 1    
    76   38   39 2    
    77   38   40 1    
    78   40   41 1    
    79   40   42 1    
    80   40  102 1    
    81   41  103 1    
    82   41  104 1    
    83   41  105 1    
    84   42   43 am   BACKBONE|DICT|INTERRES
    85   42  106 1    
    86   43   44 2    
    87   43   45 1    
    88   45   46 1    
    89   45   49 1    
    90   45  107 1    
    91   46   47 1    
    92   46  108 1    
    93   46  109 1    
    94   47   48 1    
    95   48  110 1    
    96   48  111 1    
    97   49   50 am   BACKBONE|DICT|INTERRES
    98   49  112 1    
    99   50   51 2    
   100   50   52 1    
   101   52   53 1    
   102   52   54 1    
   103   52  113 1    
   104   53  114 1    
   105   53  115 1    
   106   53  116 1    
   107   54   55 am   BACKBONE|DICT|INTERRES
   108   54  117 1    
   109   55   56 2    
   110   55   57 1    
   111   57   58 1    
   112   57   59 1    
   113   57  118 1    
   114   58  119 1    
   115   58  120 1    
   116   58  121 1    
   117   59   60 am   BACKBONE|DICT|INTERRES
   118   59  122 1    
   119   60   61 2    
   120   60   62 1    
   121   62   63 1    
   122   62   64 1    
   123   62  123 1    
   124   63  124 1    
   125   63  125 1    
   126   63  126 1    
   127   64   65 am   BACKBONE|DICT|INTERRES
   128   64  127 1    
   129   65   66 2    
@<TRIPOS>SUBSTRUCTURE
     1 UNK         1 GROUP             0       ****    0 ROOT    
