@<TRIPOS>MOLECULE
3R135
127   129    1
SMALL
USER_CHARGES


@<TRIPOS>ATOM
      1 CA        -77.2514   26.7378  -71.1022 C.3       0 UNK        -0.1998 
      2 C         -78.6520   26.8798  -70.5345 C.2       0 UNK         0.4909 
      3 O         -78.9751   26.2291  -69.5409 O.2       0 UNK        -0.5240 
      4 N         -79.4956   27.7097  -71.1656 N.am      1 UNK        -0.4739 
      5 CA        -80.8989   27.9228  -70.7779 C.3       1 UNK         0.0864 
      6 C6        -81.5238   29.2020  -71.4016 C.3       11 UNK        -0.0881 
      7 S7        -80.5330   30.7219  -71.1625 S.3       11 UNK        -0.2682 
      8 C8        -80.1669   31.2361  -72.8764 C.3       11 UNK         0.0289 
      9 C9        -79.0270   30.4223  -73.4693 C.ar      11 UNK        -0.0687 
     10 C10       -79.2796   29.1607  -74.0104 C.ar      11 UNK        -0.0823 
     11 C11       -78.2311   28.3556  -74.4521 C.ar      11 UNK        -0.0830 
     12 C12       -76.9225   28.8448  -74.4136 C.ar      11 UNK        -0.1021 
     13 C13       -76.6583   30.1286  -73.9270 C.ar      11 UNK        -0.0753 
     14 C14       -77.7163   30.9120  -73.4507 C.ar      11 UNK        -0.0933 
     15 C15       -75.2244   30.6496  -73.9159 C.3       11 UNK         0.0166 
     16 S16       -74.6699   31.2611  -72.2899 S.3       11 UNK        -0.2615 
     17 C17       -74.9188   29.8134  -71.2069 C.3       11 UNK        -0.0865 
     18 CA        -73.5950   29.0897  -70.8201 C.3       10 UNK         0.0862 
     19 C         -73.7772   28.1257  -69.6052 C.2       10 UNK         0.5551 
     20 N         -73.0710   27.0036  -69.5363 N.am      10 UNK        -0.7319 
     21 O         -74.5447   28.4124  -68.6898 O.2       10 UNK        -0.5018 
     22 N         -72.8853   28.4920  -71.9698 N.am      10 UNK        -0.4509 
     23 C         -73.3410   27.5108  -72.7600 C.2       10 UNK         0.4899 
     24 O         -74.4773   27.0430  -72.7044 O.2       10 UNK        -0.4839 
     25 CA        -72.3468   26.9374  -73.7787 C.3       9 UNK         0.0222 
     26 CB        -72.3323   25.4004  -73.7454 C.3       9 UNK        -0.1966 
     27 N         -72.6887   27.3799  -75.1263 N.am      9 UNK        -0.4218 
     28 C         -72.3367   28.5672  -75.6390 C.2       9 UNK         0.5020 
     29 O         -71.7064   29.4193  -75.0094 O.2       9 UNK        -0.5274 
     30 CA        -72.7530   28.8421  -77.0977 C.3       8 UNK         0.0270 
     31 CB        -71.9650   30.0007  -77.7445 C.3       8 UNK        -0.1976 
     32 N         -72.7044   27.6427  -77.9427 N.am      8 UNK        -0.4313 
     33 C         -71.6449   26.8563  -78.1984 C.2       8 UNK         0.5041 
     34 O         -70.5032   27.0913  -77.8006 O.2       8 UNK        -0.5577 
     35 CA        -71.8939   25.5687  -79.0087 C.3       7 UNK         0.0284 
     36 CB        -71.6335   24.3275  -78.1365 C.3       7 UNK        -0.1958 
     37 N         -73.2561   25.4899  -79.5395 N.am      7 UNK        -0.4454 
     38 C         -73.6641   26.0362  -80.6931 C.2       7 UNK         0.5089 
     39 O         -72.9127   26.5905  -81.4950 O.2       7 UNK        -0.5125 
     40 CA        -75.1764   25.9834  -80.9827 C.3       6 UNK         0.0408 
     41 CB        -75.5144   24.7617  -81.8515 C.3       6 UNK        -0.1791 
     42 N         -75.9996   25.9593  -79.7669 N.am      6 UNK        -0.4762 
     43 C         -76.0833   26.9606  -78.8765 C.2       6 UNK         0.5007 
     44 O         -75.4910   28.0313  -79.0005 O.2       6 UNK        -0.5032 
     45 CA        -76.9054   26.6988  -77.6022 C.3       5 UNK         0.0783 
     46 C46       -78.3595   27.2072  -77.7648 C.3       11 UNK        -0.0857 
     47 S47       -79.5111   26.8109  -76.3981 S.3       11 UNK        -0.2512 
     48 C48       -78.5148   26.9262  -74.8749 C.3       11 UNK         0.0225 
     49 N         -76.8403   25.2924  -77.1927 N.am      5 UNK        -0.4615 
     50 C         -75.7724   24.7168  -76.6243 C.2       4 UNK         0.5053 
     51 O         -74.6946   25.2980  -76.4713 O.2       4 UNK        -0.5105 
     52 CA        -75.9472   23.2496  -76.1824 C.3       4 UNK         0.0263 
     53 CB        -74.9264   22.8114  -75.1115 C.3       4 UNK        -0.1981 
     54 N         -77.3295   22.9214  -75.7895 N.am      4 UNK        -0.4224 
     55 C         -78.0015   23.3424  -74.7047 C.2       3 UNK         0.4895 
     56 O         -77.5232   24.0373  -73.8058 O.2       3 UNK        -0.5091 
     57 CA        -79.4698   22.9035  -74.6173 C.3       3 UNK         0.0250 
     58 CB        -79.5846   21.3842  -74.3812 C.3       3 UNK        -0.1996 
     59 N         -80.1538   23.6175  -73.5360 N.am      3 UNK        -0.4254 
     60 C         -81.4714   23.8599  -73.4968 C.2       2 UNK         0.5004 
     61 O         -82.2460   23.5770  -74.4113 O.2       2 UNK        -0.5226 
     62 CA        -82.0302   24.5053  -72.2221 C.3       2 UNK         0.0269 
     63 CB        -82.0063   23.5068  -71.0469 C.3       2 UNK        -0.1926 
     64 N         -81.3197   25.7377  -71.8754 N.am      2 UNK        -0.4687 
     65 C         -81.7969   26.6935  -71.0620 C.2       1 UNK         0.5165 
     66 O         -82.9110   26.6385  -70.5385 O.2       1 UNK        -0.5079 
     67 H67       -76.5122   27.0460  -70.3645 H         1 UNK         0.0900 
     68 H68       -77.1132   27.3403  -71.9975 H         1 UNK         0.0900 
     69 H69       -77.0531   25.6997  -71.3686 H         1 UNK         0.0900 
     70 H70       -79.1662   28.2677  -71.9423 H         1 UNK         0.2959 
     71 H71       -80.9096   28.0575  -69.6937 H         1 UNK         0.1079 
     72 H72       -81.7388   29.0586  -72.4597 H         1 UNK         0.0837 
     73 H73       -82.4967   29.3890  -70.9426 H         1 UNK         0.0837 
     74 H74       -81.0618   31.1485  -73.4944 H         1 UNK         0.0685 
     75 H75       -79.9042   32.2950  -72.8732 H         1 UNK         0.0685 
     76 H76       -80.2885   28.7776  -74.0543 H         1 UNK         0.1434 
     77 H77       -76.1023   28.2166  -74.7326 H         1 UNK         0.1329 
     78 H78       -77.5141   31.8941  -73.0456 H         1 UNK         0.1335 
     79 H79       -74.5318   29.8743  -74.2409 H         1 UNK         0.0680 
     80 H80       -75.1399   31.4590  -74.6419 H         1 UNK         0.0680 
     81 H81       -75.6226   29.1179  -71.6592 H         1 UNK         0.1032 
     82 H82       -75.4225   30.1914  -70.3157 H         1 UNK         0.1032 
     83 H83       -72.9173   29.8560  -70.4425 H         1 UNK         0.0461 
     84 H84       -72.4244   26.7605  -70.2686 H         1 UNK         0.3453 
     85 H85       -73.1871   26.3958  -68.7410 H         1 UNK         0.3453 
     86 H86       -71.9454   28.8307  -72.1205 H         1 UNK         0.2984 
     87 H87       -71.3399   27.2810  -73.5312 H         1 UNK         0.0554 
     88 H88       -72.0750   25.0320  -72.7517 H         1 UNK         0.0847 
     89 H89       -71.6010   24.9941  -74.4443 H         1 UNK         0.0847 
     90 H90       -73.3064   24.9867  -74.0041 H         1 UNK         0.0847 
     91 H91       -73.2504   26.7440  -75.6822 H         1 UNK         0.3141 
     92 H92       -73.8010   29.1427  -77.0564 H         1 UNK         0.0743 
     93 H93       -72.1058   30.9285  -77.1885 H         1 UNK         0.0784 
     94 H94       -70.8941   29.7965  -77.7706 H         1 UNK         0.0784 
     95 H95       -72.2974   30.1833  -78.7664 H         1 UNK         0.0784 
     96 H96       -73.5924   27.3841  -78.3556 H         1 UNK         0.3213 
     97 H97       -71.1821   25.5603  -79.8372 H         1 UNK         0.0855 
     98 H98       -70.6080   24.3201  -77.7645 H         1 UNK         0.0814 
     99 H99       -71.7771   23.4066  -78.7017 H         1 UNK         0.0814 
    100 H100      -72.2924   24.2963  -77.2679 H         1 UNK         0.0814 
    101 H101      -73.9484   25.0643  -78.9395 H         1 UNK         0.3105 
    102 H102      -75.4351   26.8837  -81.5442 H         1 UNK         0.0547 
    103 H103      -74.9346   24.7688  -82.7757 H         1 UNK         0.0837 
    104 H104      -75.2952   23.8250  -81.3377 H         1 UNK         0.0837 
    105 H105      -76.5673   24.7532  -82.1336 H         1 UNK         0.0837 
    106 H106      -76.5173   25.1116  -79.5828 H         1 UNK         0.3020 
    107 H107      -76.4305   27.2935  -76.8212 H         1 UNK         0.1245 
    108 H108      -78.8028   26.8022  -78.6767 H         1 UNK         0.0781 
    109 H109      -78.3593   28.2918  -77.8898 H         1 UNK         0.0781 
    110 H110      -77.5876   26.3649  -74.9542 H         1 UNK         0.0836 
    111 H111      -79.0725   26.4378  -74.0759 H         1 UNK         0.0836 
    112 H112      -77.6930   24.7601  -77.2820 H         1 UNK         0.3022 
    113 H113      -75.7434   22.6557  -77.0745 H         1 UNK         0.0747 
    114 H114      -73.9038   22.9433  -75.4671 H         1 UNK         0.0793 
    115 H115      -75.0277   23.3889  -74.1928 H         1 UNK         0.0793 
    116 H116      -75.0462   21.7582  -74.8585 H         1 UNK         0.0793 
    117 H117      -77.8270   22.3336  -76.4450 H         1 UNK         0.3047 
    118 H118      -79.9422   23.1603  -75.5683 H         1 UNK         0.0822 
    119 H119      -79.1028   20.8162  -75.1778 H         1 UNK         0.0807 
    120 H120      -80.6264   21.0647  -74.3493 H         1 UNK         0.0807 
    121 H121      -79.1172   21.0891  -73.4409 H         1 UNK         0.0807 
    122 H122      -79.5541   23.8948  -72.7701 H         1 UNK         0.2946 
    123 H123      -83.0722   24.7601  -72.4305 H         1 UNK         0.1144 
    124 H124      -82.5468   23.8935  -70.1829 H         1 UNK         0.0793 
    125 H125      -80.9881   23.2812  -70.7280 H         1 UNK         0.0793 
    126 H126      -82.4799   22.5638  -71.3241 H         1 UNK         0.0793 
    127 H127      -80.4109   25.8752  -72.2918 H         1 UNK         0.2896 
@<TRIPOS>BOND
     1    1    2 1    
     2    1   67 1    
     3    1   68 1    
     4    1   69 1    
     5    2    3 2    
     6    2    4 am   BACKBONE|DICT|INTERRES
     7    4    5 1    
     8    4   70 1    
     9    5    6 1    
    10    5   65 1    
    11    5   71 1    
    12    6    7 1    
    13    6   72 1    
    14    6   73 1    
    15    7    8 1    
    16    8    9 1    
    17    8   74 1    
    18    8   75 1    
    19    9   10 ar   
    20    9   14 ar   
    21   10   11 ar   
    22   10   76 1    
    23   11   12 ar   
    24   11   48 1    
    25   12   13 ar   
    26   12   77 1    
    27   13   14 ar   
    28   13   15 1    
    29   14   78 1    
    30   15   16 1    
    31   15   79 1    
    32   15   80 1    
    33   16   17 1    
    34   17   18 1    
    35   17   81 1    
    36   17   82 1    
    37   18   19 1    
    38   18   22 1    
    39   18   83 1    
    40   19   20 am   BACKBONE|DICT|INTERRES
    41   19   21 2    
    42   20   84 1    
    43   20   85 1    
    44   22   23 am   BACKBONE|DICT|INTERRES
    45   22   86 1    
    46   23   24 2    
    47   23   25 1    
    48   25   26 1    
    49   25   27 1    
    50   25   87 1    
    51   26   88 1    
    52   26   89 1    
    53   26   90 1    
    54   27   28 am   BACKBONE|DICT|INTERRES
    55   27   91 1    
    56   28   29 2    
    57   28   30 1    
    58   30   31 1    
    59   30   32 1    
    60   30   92 1    
    61   31   93 1    
    62   31   94 1    
    63   31   95 1    
    64   32   33 am   BACKBONE|DICT|INTERRES
    65   32   96 1    
    66   33   34 2    
    67   33   35 1    
    68   35   36 1    
    69   35   37 1    
    70   35   97 1    
    71   36   98 1    
    72   36   99 1    
    73   36  100 1    
    74   37   38 am   BACKBONE|DICT|INTERRES
    75   37  101 1    
    76   38   39 2    
    77   38   40 1    
    78   40   41 1    
    79   40   42 1    
    80   40  102 1    
    81   41  103 1    
    82   41  104 1    
    83   41  105 1    
    84   42   43 am   BACKBONE|DICT|INTERRES
    85   42  106 1    
    86   43   44 2    
    87   43   45 1    
    88   45   46 1    
    89   45   49 1    
    90   45  107 1    
    91   46   47 1    
    92   46  108 1    
    93   46  109 1    
    94   47   48 1    
    95   48  110 1    
    96   48  111 1    
    97   49   50 am   BACKBONE|DICT|INTERRES
    98   49  112 1    
    99   50   51 2    
   100   50   52 1    
   101   52   53 1    
   102   52   54 1    
   103   52  113 1    
   104   53  114 1    
   105   53  115 1    
   106   53  116 1    
   107   54   55 am   BACKBONE|DICT|INTERRES
   108   54  117 1    
   109   55   56 2    
   110   55   57 1    
   111   57   58 1    
   112   57   59 1    
   113   57  118 1    
   114   58  119 1    
   115   58  120 1    
   116   58  121 1    
   117   59   60 am   BACKBONE|DICT|INTERRES
   118   59  122 1    
   119   60   61 2    
   120   60   62 1    
   121   62   63 1    
   122   62   64 1    
   123   62  123 1    
   124   63  124 1    
   125   63  125 1    
   126   63  126 1    
   127   64   65 am   BACKBONE|DICT|INTERRES
   128   64  127 1    
   129   65   66 2    
@<TRIPOS>SUBSTRUCTURE
     1 UNK         1 GROUP             0       ****    0 ROOT    
