@<TRIPOS>MOLECULE
3R135
127   129    1
SMALL
USER_CHARGES


@<TRIPOS>ATOM
      1 CA        -77.0855   25.1009  -71.4219 C.3       0 UNK        -0.1998 
      2 C         -78.5171   24.9428  -70.9457 C.2       0 UNK         0.4909 
      3 O         -78.7756   24.1965  -70.0011 O.2       0 UNK        -0.5240 
      4 N         -79.4618   25.6119  -71.6148 N.am      1 UNK        -0.4739 
      5 CA        -80.9047   25.5468  -71.3606 C.3       1 UNK         0.0864 
      6 C6        -81.6100   26.8813  -71.7232 C.3       11 UNK        -0.0881 
      7 S7        -81.2063   27.5499  -73.3814 S.3       11 UNK        -0.2682 
      8 C8        -81.0310   29.3299  -73.0294 C.3       11 UNK         0.0289 
      9 C9        -79.5781   29.7920  -73.0014 C.ar      11 UNK        -0.0687 
     10 C10       -79.1382   30.7433  -73.9285 C.ar      11 UNK        -0.0823 
     11 C11       -77.8280   31.2289  -73.8859 C.ar      11 UNK        -0.0830 
     12 C12       -76.9512   30.7504  -72.9109 C.ar      11 UNK        -0.1021 
     13 C13       -77.3711   29.7921  -71.9851 C.ar      11 UNK        -0.0753 
     14 C14       -78.6870   29.3170  -72.0308 C.ar      11 UNK        -0.0933 
     15 C15       -76.3929   29.2983  -70.9321 C.3       11 UNK         0.0166 
     16 S16       -75.1959   28.1382  -71.6585 S.3       11 UNK        -0.2615 
     17 C17       -73.6696   28.5484  -70.7453 C.3       11 UNK        -0.0865 
     18 CA        -72.7128   29.4482  -71.5729 C.3       10 UNK         0.0862 
     19 C         -71.5059   29.9210  -70.7109 C.2       10 UNK         0.5551 
     20 N         -70.2687   29.5779  -71.0488 N.am      10 UNK        -0.7319 
     21 O         -71.6985   30.6189  -69.7183 O.2       10 UNK        -0.5018 
     22 N         -72.3431   28.8094  -72.8465 N.am      10 UNK        -0.4509 
     23 C         -71.9133   29.4375  -73.9456 C.2       10 UNK         0.4899 
     24 O         -71.7562   30.6567  -74.0144 O.2       10 UNK        -0.4839 
     25 CA        -71.6172   28.5768  -75.1911 C.3       9 UNK         0.0222 
     26 CB        -70.1300   28.1765  -75.2507 C.3       9 UNK        -0.1966 
     27 N         -72.5026   27.4135  -75.3692 N.am      9 UNK        -0.4218 
     28 C         -72.5917   26.3011  -74.6236 C.2       9 UNK         0.5020 
     29 O         -71.8913   26.0839  -73.6339 O.2       9 UNK        -0.5274 
     30 CA        -73.6746   25.2767  -74.9952 C.3       8 UNK         0.0270 
     31 CB        -74.9496   25.5436  -74.1851 C.3       8 UNK        -0.1976 
     32 N         -74.0172   25.2524  -76.4156 N.am      8 UNK        -0.4313 
     33 C         -73.2677   24.6898  -77.3717 C.2       8 UNK         0.5041 
     34 O         -72.1567   24.1959  -77.1751 O.2       8 UNK        -0.5577 
     35 CA        -73.8719   24.6548  -78.7823 C.3       7 UNK         0.0284 
     36 CB        -74.9430   23.5549  -78.8869 C.3       7 UNK        -0.1958 
     37 N         -74.4631   25.9452  -79.1338 N.am      7 UNK        -0.4454 
     38 C         -73.8087   26.9289  -79.7644 C.2       7 UNK         0.5089 
     39 O         -72.6507   26.8313  -80.1720 O.2       7 UNK        -0.5125 
     40 CA        -74.5692   28.2494  -79.9905 C.3       6 UNK         0.0408 
     41 CB        -75.1709   28.2828  -81.4044 C.3       6 UNK        -0.1791 
     42 N         -75.6291   28.5095  -79.0116 N.am      6 UNK        -0.4762 
     43 C         -75.4254   28.7385  -77.7058 C.2       6 UNK         0.5007 
     44 O         -74.3172   28.7106  -77.1719 O.2       6 UNK        -0.5032 
     45 CA        -76.6841   28.9855  -76.8468 C.3       5 UNK         0.0783 
     46 C46       -77.1838   30.4445  -77.0083 C.3       11 UNK        -0.0857 
     47 S47       -76.1668   31.6391  -76.0777 S.3       11 UNK        -0.2512 
     48 C48       -77.3637   32.2924  -74.8709 C.3       11 UNK         0.0225 
     49 N         -77.7685   28.0267  -77.1034 N.am      5 UNK        -0.4615 
     50 C         -77.6659   26.6914  -77.1365 C.2       4 UNK         0.5053 
     51 O         -76.6025   26.0736  -77.0511 O.2       4 UNK        -0.5105 
     52 CA        -78.9736   25.9239  -77.3808 C.3       4 UNK         0.0263 
     53 CB        -79.2733   25.8621  -78.8878 C.3       4 UNK        -0.1981 
     54 N         -78.9308   24.5590  -76.8521 N.am      4 UNK        -0.4224 
     55 C         -78.8626   24.2411  -75.5536 C.2       3 UNK         0.4895 
     56 O         -78.8180   25.0634  -74.6342 O.2       3 UNK        -0.5091 
     57 CA        -78.8400   22.7441  -75.2259 C.3       3 UNK         0.0250 
     58 CB        -77.3949   22.2336  -75.0987 C.3       3 UNK        -0.1996 
     59 N         -79.5326   22.5594  -73.9566 N.am      3 UNK        -0.4254 
     60 C         -80.5467   21.7193  -73.7194 C.2       2 UNK         0.5004 
     61 O         -80.9471   20.8793  -74.5261 O.2       2 UNK        -0.5226 
     62 CA        -81.2409   21.8394  -72.3482 C.3       2 UNK         0.0269 
     63 CB        -80.7985   20.6977  -71.4186 C.3       2 UNK        -0.1926 
     64 N         -80.9707   23.1214  -71.6892 N.am      2 UNK        -0.4687 
     65 C         -81.5173   24.2963  -72.0332 C.2       1 UNK         0.5165 
     66 O         -82.4257   24.4000  -72.8590 O.2       1 UNK        -0.5079 
     67 H67       -76.4567   25.4726  -70.6135 H         1 UNK         0.0900 
     68 H68       -77.0246   25.8031  -72.2529 H         1 UNK         0.0900 
     69 H69       -76.6890   24.1424  -71.7551 H         1 UNK         0.0900 
     70 H70       -79.2076   26.1362  -72.4439 H         1 UNK         0.2959 
     71 H71       -81.0573   25.4011  -70.2884 H         1 UNK         0.1079 
     72 H72       -82.6941   26.7836  -71.6403 H         1 UNK         0.0837 
     73 H73       -81.3329   27.6203  -70.9707 H         1 UNK         0.0837 
     74 H74       -81.5127   29.5896  -72.0862 H         1 UNK         0.0685 
     75 H75       -81.5843   29.8721  -73.7976 H         1 UNK         0.0685 
     76 H76       -79.8235   31.1217  -74.6747 H         1 UNK         0.1434 
     77 H77       -75.9354   31.1209  -72.8755 H         1 UNK         0.1329 
     78 H78       -79.0206   28.5851  -71.3085 H         1 UNK         0.1335 
     79 H79       -76.9155   28.8081  -70.1094 H         1 UNK         0.0680 
     80 H80       -75.8744   30.1576  -70.5042 H         1 UNK         0.0680 
     81 H81       -73.9335   29.0225  -69.7980 H         1 UNK         0.1032 
     82 H82       -73.1712   27.6142  -70.4802 H         1 UNK         0.1032 
     83 H83       -73.2643   30.3572  -71.8215 H         1 UNK         0.0461 
     84 H84       -70.1053   29.0066  -71.8620 H         1 UNK         0.3453 
     85 H85       -69.4947   29.8930  -70.4854 H         1 UNK         0.3453 
     86 H86       -72.3847   27.7958  -72.8741 H         1 UNK         0.2984 
     87 H87       -71.8128   29.2150  -76.0541 H         1 UNK         0.0554 
     88 H88       -69.9046   27.6273  -76.1649 H         1 UNK         0.0847 
     89 H89       -69.8373   27.5542  -74.4049 H         1 UNK         0.0847 
     90 H90       -69.4901   29.0598  -75.2372 H         1 UNK         0.0847 
     91 H91       -73.1869   27.5374  -76.1113 H         1 UNK         0.3141 
     92 H92       -73.3002   24.2883  -74.7202 H         1 UNK         0.0743 
     93 H93       -74.7403   25.4917  -73.1163 H         1 UNK         0.0784 
     94 H94       -75.3628   26.5319  -74.3931 H         1 UNK         0.0784 
     95 H95       -75.7243   24.8097  -74.4032 H         1 UNK         0.0784 
     96 H96       -74.9415   25.6059  -76.6643 H         1 UNK         0.3213 
     97 H97       -73.0722   24.4103  -79.4852 H         1 UNK         0.0855 
     98 H98       -75.7819   23.7337  -78.2133 H         1 UNK         0.0814 
     99 H99       -74.5247   22.5797  -78.6339 H         1 UNK         0.0814 
    100 H100      -75.3383   23.4841  -79.9003 H         1 UNK         0.0814 
    101 H101      -75.3903   26.1346  -78.7726 H         1 UNK         0.3105 
    102 H102      -73.8414   29.0599  -79.9121 H         1 UNK         0.0547 
    103 H103      -75.9268   27.5084  -81.5407 H         1 UNK         0.0837 
    104 H104      -75.6327   29.2468  -81.6182 H         1 UNK         0.0837 
    105 H105      -74.4006   28.1215  -82.1600 H         1 UNK         0.0837 
    106 H106      -76.5773   28.5263  -79.3590 H         1 UNK         0.3020 
    107 H107      -76.3945   28.8316  -75.8041 H         1 UNK         0.1245 
    108 H108      -78.2145   30.5284  -76.6625 H         1 UNK         0.0781 
    109 H109      -77.2105   30.7461  -78.0573 H         1 UNK         0.0781 
    110 H110      -76.8959   33.1095  -74.3199 H         1 UNK         0.0836 
    111 H111      -78.2095   32.7315  -75.4025 H         1 UNK         0.0836 
    112 H112      -78.6878   28.4297  -77.2095 H         1 UNK         0.3022 
    113 H113      -79.7858   26.4523  -76.8763 H         1 UNK         0.0747 
    114 H114      -79.3538   26.8620  -79.3162 H         1 UNK         0.0793 
    115 H115      -80.2173   25.3534  -79.0844 H         1 UNK         0.0793 
    116 H116      -78.4884   25.3364  -79.4339 H         1 UNK         0.0793 
    117 H117      -78.9240   23.8157  -77.5347 H         1 UNK         0.3047 
    118 H118      -79.3495   22.1993  -76.0238 H         1 UNK         0.0822 
    119 H119      -76.8280   22.4222  -76.0115 H         1 UNK         0.0807 
    120 H120      -77.3728   21.1589  -74.9178 H         1 UNK         0.0807 
    121 H121      -76.8663   22.7191  -74.2780 H         1 UNK         0.0807 
    122 H122      -79.3358   23.2716  -73.2669 H         1 UNK         0.2946 
    123 H123      -82.3166   21.7522  -72.5184 H         1 UNK         0.1144 
    124 H124      -81.0067   19.7254  -71.8675 H         1 UNK         0.0793 
    125 H125      -81.3284   20.7334  -70.4665 H         1 UNK         0.0793 
    126 H126      -79.7286   20.7384  -71.2098 H         1 UNK         0.0793 
    127 H127      -80.2278   23.1384  -70.9971 H         1 UNK         0.2896 
@<TRIPOS>BOND
     1    1    2 1    
     2    1   67 1    
     3    1   68 1    
     4    1   69 1    
     5    2    3 2    
     6    2    4 am   BACKBONE|DICT|INTERRES
     7    4    5 1    
     8    4   70 1    
     9    5    6 1    
    10    5   65 1    
    11    5   71 1    
    12    6    7 1    
    13    6   72 1    
    14    6   73 1    
    15    7    8 1    
    16    8    9 1    
    17    8   74 1    
    18    8   75 1    
    19    9   10 ar   
    20    9   14 ar   
    21   10   11 ar   
    22   10   76 1    
    23   11   12 ar   
    24   11   48 1    
    25   12   13 ar   
    26   12   77 1    
    27   13   14 ar   
    28   13   15 1    
    29   14   78 1    
    30   15   16 1    
    31   15   79 1    
    32   15   80 1    
    33   16   17 1    
    34   17   18 1    
    35   17   81 1    
    36   17   82 1    
    37   18   19 1    
    38   18   22 1    
    39   18   83 1    
    40   19   20 am   BACKBONE|DICT|INTERRES
    41   19   21 2    
    42   20   84 1    
    43   20   85 1    
    44   22   23 am   BACKBONE|DICT|INTERRES
    45   22   86 1    
    46   23   24 2    
    47   23   25 1    
    48   25   26 1    
    49   25   27 1    
    50   25   87 1    
    51   26   88 1    
    52   26   89 1    
    53   26   90 1    
    54   27   28 am   BACKBONE|DICT|INTERRES
    55   27   91 1    
    56   28   29 2    
    57   28   30 1    
    58   30   31 1    
    59   30   32 1    
    60   30   92 1    
    61   31   93 1    
    62   31   94 1    
    63   31   95 1    
    64   32   33 am   BACKBONE|DICT|INTERRES
    65   32   96 1    
    66   33   34 2    
    67   33   35 1    
    68   35   36 1    
    69   35   37 1    
    70   35   97 1    
    71   36   98 1    
    72   36   99 1    
    73   36  100 1    
    74   37   38 am   BACKBONE|DICT|INTERRES
    75   37  101 1    
    76   38   39 2    
    77   38   40 1    
    78   40   41 1    
    79   40   42 1    
    80   40  102 1    
    81   41  103 1    
    82   41  104 1    
    83   41  105 1    
    84   42   43 am   BACKBONE|DICT|INTERRES
    85   42  106 1    
    86   43   44 2    
    87   43   45 1    
    88   45   46 1    
    89   45   49 1    
    90   45  107 1    
    91   46   47 1    
    92   46  108 1    
    93   46  109 1    
    94   47   48 1    
    95   48  110 1    
    96   48  111 1    
    97   49   50 am   BACKBONE|DICT|INTERRES
    98   49  112 1    
    99   50   51 2    
   100   50   52 1    
   101   52   53 1    
   102   52   54 1    
   103   52  113 1    
   104   53  114 1    
   105   53  115 1    
   106   53  116 1    
   107   54   55 am   BACKBONE|DICT|INTERRES
   108   54  117 1    
   109   55   56 2    
   110   55   57 1    
   111   57   58 1    
   112   57   59 1    
   113   57  118 1    
   114   58  119 1    
   115   58  120 1    
   116   58  121 1    
   117   59   60 am   BACKBONE|DICT|INTERRES
   118   59  122 1    
   119   60   61 2    
   120   60   62 1    
   121   62   63 1    
   122   62   64 1    
   123   62  123 1    
   124   63  124 1    
   125   63  125 1    
   126   63  126 1    
   127   64   65 am   BACKBONE|DICT|INTERRES
   128   64  127 1    
   129   65   66 2    
@<TRIPOS>SUBSTRUCTURE
     1 UNK         1 GROUP             0       ****    0 ROOT    
