@<TRIPOS>MOLECULE
3R135
127   129    1
SMALL
USER_CHARGES


@<TRIPOS>ATOM
      1 CA        -84.2032   24.4641  -70.9513 C.3       0 UNK        -0.1998 
      2 C         -82.9704   24.7962  -71.7786 C.2       0 UNK         0.4909 
      3 O         -82.0674   23.9668  -71.8837 O.2       0 UNK        -0.5240 
      4 N         -82.9372   25.9995  -72.3704 N.am      1 UNK        -0.4739 
      5 CA        -81.8441   26.5455  -73.1940 C.3       1 UNK         0.0864 
      6 C6        -80.5130   26.7328  -72.4078 C.3       11 UNK        -0.0881 
      7 S7        -80.6696   28.0230  -71.1283 S.3       11 UNK        -0.2682 
      8 C8        -79.0434   27.9177  -70.3008 C.3       11 UNK         0.0289 
      9 C9        -77.8804   28.6650  -70.9647 C.ar      11 UNK        -0.0687 
     10 C10       -77.9563   29.2417  -72.2407 C.ar      11 UNK        -0.0823 
     11 C11       -76.8477   29.8888  -72.8059 C.ar      11 UNK        -0.0830 
     12 C12       -75.6696   29.9856  -72.0621 C.ar      11 UNK        -0.1021 
     13 C13       -75.5768   29.4416  -70.7779 C.ar      11 UNK        -0.0753 
     14 C14       -76.6847   28.7744  -70.2474 C.ar      11 UNK        -0.0933 
     15 C15       -74.3185   29.6004  -69.9236 C.3       11 UNK         0.0166 
     16 S16       -72.7524   29.3459  -70.8240 S.3       11 UNK        -0.2615 
     17 C17       -72.3104   31.0575  -71.2995 C.3       11 UNK        -0.0865 
     18 CA        -71.3883   31.1394  -72.5462 C.3       10 UNK         0.0862 
     19 C         -69.9111   30.7831  -72.1964 C.2       10 UNK         0.5551 
     20 N         -69.3283   29.7175  -72.7334 N.am      10 UNK        -0.7319 
     21 O         -69.2770   31.5025  -71.4281 O.2       10 UNK        -0.5018 
     22 N         -71.9513   30.4067  -73.6913 N.am      10 UNK        -0.4509 
     23 C         -71.5810   30.5721  -74.9679 C.2       10 UNK         0.4899 
     24 O         -70.8411   31.4819  -75.3459 O.2       10 UNK        -0.4839 
     25 CA        -72.1200   29.5503  -75.9943 C.3       9 UNK         0.0222 
     26 CB        -71.1622   29.3565  -77.1881 C.3       9 UNK        -0.1966 
     27 N         -72.4871   28.2440  -75.4269 N.am      9 UNK        -0.4218 
     28 C         -71.7025   27.4131  -74.7205 C.2       9 UNK         0.5020 
     29 O         -70.5354   27.6613  -74.4144 O.2       9 UNK        -0.5274 
     30 CA        -72.3308   26.0928  -74.2524 C.3       8 UNK         0.0270 
     31 CB        -73.2256   26.3221  -73.0237 C.3       8 UNK        -0.1976 
     32 N         -73.0950   25.4262  -75.3075 N.am      8 UNK        -0.4313 
     33 C         -72.5415   24.7778  -76.3421 C.2       8 UNK         0.5041 
     34 O         -71.3263   24.6738  -76.5160 O.2       8 UNK        -0.5577 
     35 CA        -73.4999   24.1217  -77.3504 C.3       7 UNK         0.0284 
     36 CB        -74.0825   22.8166  -76.7845 C.3       7 UNK        -0.1958 
     37 N         -74.5867   25.0109  -77.7604 N.am      7 UNK        -0.4454 
     38 C         -74.4239   26.1157  -78.5018 C.2       7 UNK         0.5089 
     39 O         -73.3432   26.4850  -78.9617 O.2       7 UNK        -0.5125 
     40 CA        -75.6812   26.9595  -78.7699 C.3       6 UNK         0.0408 
     41 CB        -76.4475   26.4225  -79.9891 C.3       6 UNK        -0.1791 
     42 N         -76.5786   27.0236  -77.6146 N.am      6 UNK        -0.4762 
     43 C         -76.2852   27.6409  -76.4608 C.2       6 UNK         0.5007 
     44 O         -75.2198   28.2174  -76.2442 O.2       6 UNK        -0.5032 
     45 CA        -77.3377   27.5391  -75.3409 C.3       5 UNK         0.0783 
     46 C46       -78.5342   28.4987  -75.5907 C.3       11 UNK        -0.0857 
     47 S47       -78.3560   30.2843  -75.2188 S.3       11 UNK        -0.2512 
     48 C48       -76.8463   30.5029  -74.2093 C.3       11 UNK         0.0225 
     49 N         -77.7919   26.1556  -75.1564 N.am      5 UNK        -0.4615 
     50 C         -77.0020   25.1331  -74.7984 C.2       4 UNK         0.5053 
     51 O         -75.8006   25.2482  -74.5668 O.2       4 UNK        -0.5105 
     52 CA        -77.6372   23.7359  -74.7271 C.3       4 UNK         0.0263 
     53 CB        -78.3185   23.5177  -73.3680 C.3       4 UNK        -0.1981 
     54 N         -78.5947   23.4624  -75.7989 N.am      4 UNK        -0.4224 
     55 C         -78.3579   23.5245  -77.1151 C.2       3 UNK         0.4895 
     56 O         -77.2690   23.8377  -77.5974 O.2       3 UNK        -0.5091 
     57 CA        -79.5345   23.2149  -78.0617 C.3       3 UNK         0.0250 
     58 CB        -79.6388   21.7029  -78.3396 C.3       3 UNK        -0.1996 
     59 N         -80.8248   23.7862  -77.6385 N.am      3 UNK        -0.4254 
     60 C         -81.5673   23.4851  -76.5621 C.2       2 UNK         0.5004 
     61 O         -81.3012   22.5846  -75.7631 O.2       2 UNK        -0.5226 
     62 CA        -82.7792   24.3951  -76.2951 C.3       2 UNK         0.0269 
     63 CB        -84.0880   23.5904  -76.3557 C.3       2 UNK        -0.1926 
     64 N         -82.6986   25.0872  -75.0018 N.am      2 UNK        -0.4687 
     65 C         -81.6638   25.8143  -74.5474 C.2       1 UNK         0.5165 
     66 O         -80.6175   25.9645  -75.1804 O.2       1 UNK        -0.5079 
     67 H67       -84.9241   25.2814  -70.9452 H         1 UNK         0.0900 
     68 H68       -83.9171   24.2576  -69.9204 H         1 UNK         0.0900 
     69 H69       -84.6967   23.5790  -71.3519 H         1 UNK         0.0900 
     70 H70       -83.7184   26.6274  -72.2364 H         1 UNK         0.2959 
     71 H71       -82.1768   27.5417  -73.4906 H         1 UNK         0.1079 
     72 H72       -79.6904   27.0150  -73.0624 H         1 UNK         0.0837 
     73 H73       -80.2048   25.8009  -71.9340 H         1 UNK         0.0837 
     74 H74       -79.1710   28.3123  -69.2916 H         1 UNK         0.0685 
     75 H75       -78.7708   26.8679  -70.1837 H         1 UNK         0.0685 
     76 H76       -78.8776   29.1837  -72.7971 H         1 UNK         0.1434 
     77 H77       -74.8232   30.4962  -72.4950 H         1 UNK         0.1329 
     78 H78       -76.6230   28.3474  -69.2553 H         1 UNK         0.1335 
     79 H79       -74.3373   28.8818  -69.1027 H         1 UNK         0.0680 
     80 H80       -74.3230   30.5876  -69.4597 H         1 UNK         0.0680 
     81 H81       -73.2183   31.6296  -71.4890 H         1 UNK         0.1032 
     82 H82       -71.8474   31.5482  -70.4409 H         1 UNK         0.1032 
     83 H83       -71.3602   32.1913  -72.8374 H         1 UNK         0.0461 
     84 H84       -69.8372   29.0977  -73.3577 H         1 UNK         0.3453 
     85 H85       -68.3715   29.5102  -72.4975 H         1 UNK         0.3453 
     86 H86       -72.5358   29.6182  -73.4573 H         1 UNK         0.2984 
     87 H87       -73.0455   29.9781  -76.3819 H         1 UNK         0.0554 
     88 H88       -71.5724   28.6530  -77.9132 H         1 UNK         0.0847 
     89 H89       -70.1909   28.9786  -76.8673 H         1 UNK         0.0847 
     90 H90       -70.9899   30.2965  -77.7137 H         1 UNK         0.0847 
     91 H91       -73.4476   27.9646  -75.6165 H         1 UNK         0.3141 
     92 H92       -71.5191   25.4266  -73.9519 H         1 UNK         0.0743 
     93 H93       -74.0421   27.0150  -73.2336 H         1 UNK         0.0784 
     94 H94       -73.6645   25.3880  -72.6728 H         1 UNK         0.0784 
     95 H95       -72.6472   26.7346  -72.1971 H         1 UNK         0.0784 
     96 H96       -74.1093   25.4212  -75.2013 H         1 UNK         0.3213 
     97 H97       -72.9216   23.8720  -78.2427 H         1 UNK         0.0855 
     98 H98       -73.2876   22.1181  -76.5201 H         1 UNK         0.0814 
     99 H99       -74.7238   22.3193  -77.5125 H         1 UNK         0.0814 
    100 H100      -74.6726   22.9936  -75.8855 H         1 UNK         0.0814 
    101 H101      -75.5295   24.7468  -77.4873 H         1 UNK         0.3105 
    102 H102      -75.3550   27.9770  -78.9961 H         1 UNK         0.0547 
    103 H103      -75.8042   26.3920  -80.8695 H         1 UNK         0.0837 
    104 H104      -76.8178   25.4102  -79.8227 H         1 UNK         0.0837 
    105 H105      -77.2995   27.0565  -80.2342 H         1 UNK         0.0837 
    106 H106      -77.4476   26.5135  -77.6821 H         1 UNK         0.3020 
    107 H107      -76.8388   27.8021  -74.4099 H         1 UNK         0.1245 
    108 H108      -79.3768   28.1869  -74.9773 H         1 UNK         0.0781 
    109 H109      -78.8973   28.4026  -76.6158 H         1 UNK         0.0781 
    110 H110      -76.6930   31.5771  -74.0967 H         1 UNK         0.0836 
    111 H111      -75.9821   30.1452  -74.7672 H         1 UNK         0.0836 
    112 H112      -78.7841   25.9784  -75.3026 H         1 UNK         0.3022 
    113 H113      -76.8308   23.0069  -74.8214 H         1 UNK         0.0747 
    114 H114      -77.6462   23.7625  -72.5443 H         1 UNK         0.0793 
    115 H115      -79.2095   24.1362  -73.2626 H         1 UNK         0.0793 
    116 H116      -78.6217   22.4784  -73.2411 H         1 UNK         0.0793 
    117 H117      -79.5323   23.1848  -75.5192 H         1 UNK         0.3047 
    118 H118      -79.2980   23.7016  -79.0095 H         1 UNK         0.0822 
    119 H119      -79.8451   21.1315  -77.4341 H         1 UNK         0.0807 
    120 H120      -78.7053   21.3207  -78.7552 H         1 UNK         0.0807 
    121 H121      -80.4271   21.4857  -79.0602 H         1 UNK         0.0807 
    122 H122      -81.1294   24.5707  -78.1985 H         1 UNK         0.2946 
    123 H123      -82.8177   25.1647  -77.0688 H         1 UNK         0.1144 
    124 H124      -84.1843   23.0722  -77.3110 H         1 UNK         0.0793 
    125 H125      -84.1326   22.8351  -75.5698 H         1 UNK         0.0793 
    126 H126      -84.9593   24.2371  -76.2505 H         1 UNK         0.0793 
    127 H127      -83.5045   25.0070  -74.3997 H         1 UNK         0.2896 
@<TRIPOS>BOND
     1    1    2 1    
     2    1   67 1    
     3    1   68 1    
     4    1   69 1    
     5    2    3 2    
     6    2    4 am   BACKBONE|DICT|INTERRES
     7    4    5 1    
     8    4   70 1    
     9    5    6 1    
    10    5   65 1    
    11    5   71 1    
    12    6    7 1    
    13    6   72 1    
    14    6   73 1    
    15    7    8 1    
    16    8    9 1    
    17    8   74 1    
    18    8   75 1    
    19    9   10 ar   
    20    9   14 ar   
    21   10   11 ar   
    22   10   76 1    
    23   11   12 ar   
    24   11   48 1    
    25   12   13 ar   
    26   12   77 1    
    27   13   14 ar   
    28   13   15 1    
    29   14   78 1    
    30   15   16 1    
    31   15   79 1    
    32   15   80 1    
    33   16   17 1    
    34   17   18 1    
    35   17   81 1    
    36   17   82 1    
    37   18   19 1    
    38   18   22 1    
    39   18   83 1    
    40   19   20 am   BACKBONE|DICT|INTERRES
    41   19   21 2    
    42   20   84 1    
    43   20   85 1    
    44   22   23 am   BACKBONE|DICT|INTERRES
    45   22   86 1    
    46   23   24 2    
    47   23   25 1    
    48   25   26 1    
    49   25   27 1    
    50   25   87 1    
    51   26   88 1    
    52   26   89 1    
    53   26   90 1    
    54   27   28 am   BACKBONE|DICT|INTERRES
    55   27   91 1    
    56   28   29 2    
    57   28   30 1    
    58   30   31 1    
    59   30   32 1    
    60   30   92 1    
    61   31   93 1    
    62   31   94 1    
    63   31   95 1    
    64   32   33 am   BACKBONE|DICT|INTERRES
    65   32   96 1    
    66   33   34 2    
    67   33   35 1    
    68   35   36 1    
    69   35   37 1    
    70   35   97 1    
    71   36   98 1    
    72   36   99 1    
    73   36  100 1    
    74   37   38 am   BACKBONE|DICT|INTERRES
    75   37  101 1    
    76   38   39 2    
    77   38   40 1    
    78   40   41 1    
    79   40   42 1    
    80   40  102 1    
    81   41  103 1    
    82   41  104 1    
    83   41  105 1    
    84   42   43 am   BACKBONE|DICT|INTERRES
    85   42  106 1    
    86   43   44 2    
    87   43   45 1    
    88   45   46 1    
    89   45   49 1    
    90   45  107 1    
    91   46   47 1    
    92   46  108 1    
    93   46  109 1    
    94   47   48 1    
    95   48  110 1    
    96   48  111 1    
    97   49   50 am   BACKBONE|DICT|INTERRES
    98   49  112 1    
    99   50   51 2    
   100   50   52 1    
   101   52   53 1    
   102   52   54 1    
   103   52  113 1    
   104   53  114 1    
   105   53  115 1    
   106   53  116 1    
   107   54   55 am   BACKBONE|DICT|INTERRES
   108   54  117 1    
   109   55   56 2    
   110   55   57 1    
   111   57   58 1    
   112   57   59 1    
   113   57  118 1    
   114   58  119 1    
   115   58  120 1    
   116   58  121 1    
   117   59   60 am   BACKBONE|DICT|INTERRES
   118   59  122 1    
   119   60   61 2    
   120   60   62 1    
   121   62   63 1    
   122   62   64 1    
   123   62  123 1    
   124   63  124 1    
   125   63  125 1    
   126   63  126 1    
   127   64   65 am   BACKBONE|DICT|INTERRES
   128   64  127 1    
   129   65   66 2    
@<TRIPOS>SUBSTRUCTURE
     1 UNK         1 GROUP             0       ****    0 ROOT    
