@<TRIPOS>MOLECULE
3R135
127   129    1
SMALL
USER_CHARGES


@<TRIPOS>ATOM
      1 CA        -85.8012   27.9706  -72.9565 C.3       0 UNK        -0.1998 
      2 C         -84.7342   28.2686  -73.9990 C.2       0 UNK         0.4909 
      3 O         -85.0453   28.8281  -75.0506 O.2       0 UNK        -0.5240 
      4 N         -83.4782   27.8932  -73.7190 N.am      1 UNK        -0.4739 
      5 CA        -82.3232   28.1015  -74.6074 C.3       1 UNK         0.0864 
      6 C6        -80.9932   28.1604  -73.8029 C.3       11 UNK        -0.0881 
      7 S7        -79.9129   29.5156  -74.3769 S.3       11 UNK        -0.2682 
      8 C8        -79.1083   30.0368  -72.8293 C.3       11 UNK         0.0289 
      9 C9        -77.9288   29.1395  -72.4865 C.ar      11 UNK        -0.0687 
     10 C10       -78.1155   27.9736  -71.7361 C.ar      11 UNK        -0.0823 
     11 C11       -77.0299   27.1482  -71.4245 C.ar      11 UNK        -0.0830 
     12 C12       -75.7525   27.5027  -71.8646 C.ar      11 UNK        -0.1021 
     13 C13       -75.5551   28.6584  -72.6250 C.ar      11 UNK        -0.0753 
     14 C14       -76.6455   29.4779  -72.9269 C.ar      11 UNK        -0.0933 
     15 C15       -74.1742   28.9738  -73.1752 C.3       11 UNK         0.0166 
     16 S16       -72.9821   29.3677  -71.8578 S.3       11 UNK        -0.2615 
     17 C17       -72.8307   31.1839  -72.0021 C.3       11 UNK        -0.0865 
     18 CA        -71.4462   31.6397  -72.5389 C.3       10 UNK         0.0862 
     19 C         -70.3184   31.4358  -71.4810 C.2       10 UNK         0.5551 
     20 N         -69.3182   30.5973  -71.7245 N.am      10 UNK        -0.7319 
     21 O         -70.3498   32.0622  -70.4243 O.2       10 UNK        -0.5018 
     22 N         -71.1729   31.0911  -73.8801 N.am      10 UNK        -0.4509 
     23 C         -70.2313   31.5350  -74.7220 C.2       10 UNK         0.4899 
     24 O         -69.5027   32.4968  -74.4729 O.2       10 UNK        -0.4839 
     25 CA        -70.0706   30.7805  -76.0601 C.3       9 UNK         0.0222 
     26 CB        -68.7660   31.1516  -76.7914 C.3       9 UNK        -0.1966 
     27 N         -70.1299   29.3205  -75.9132 N.am      9 UNK        -0.4218 
     28 C         -71.2548   28.5986  -75.8450 C.2       9 UNK         0.5020 
     29 O         -72.3793   29.1010  -75.8195 O.2       9 UNK        -0.5274 
     30 CA        -71.0901   27.0734  -75.7381 C.3       8 UNK         0.0270 
     31 CB        -70.9642   26.6390  -74.2683 C.3       8 UNK        -0.1976 
     32 N         -72.2198   26.3764  -76.3585 N.am      8 UNK        -0.4313 
     33 C         -72.3748   26.2360  -77.6847 C.2       8 UNK         0.5041 
     34 O         -71.5323   26.6014  -78.5068 O.2       8 UNK        -0.5577 
     35 CA        -73.6660   25.5688  -78.2009 C.3       7 UNK         0.0284 
     36 CB        -73.4044   24.0960  -78.5550 C.3       7 UNK        -0.1958 
     37 N         -74.7788   25.6407  -77.2544 N.am      7 UNK        -0.4454 
     38 C         -75.4326   26.7639  -76.9242 C.2       7 UNK         0.5089 
     39 O         -75.2618   27.8401  -77.4973 O.2       7 UNK        -0.5125 
     40 CA        -76.4383   26.6886  -75.7578 C.3       6 UNK         0.0408 
     41 CB        -77.8733   26.8925  -76.2664 C.3       6 UNK        -0.1791 
     42 N         -76.3809   25.4520  -74.9692 N.am      6 UNK        -0.4762 
     43 C         -75.3277   25.0252  -74.2516 C.2       6 UNK         0.5007 
     44 O         -74.2470   25.6135  -74.2131 O.2       6 UNK        -0.5032 
     45 CA        -75.4664   23.6769  -73.5131 C.3       5 UNK         0.0783 
     46 C46       -75.7876   23.8643  -72.0083 C.3       11 UNK        -0.0857 
     47 S47       -77.4971   24.4172  -71.6588 S.3       11 UNK        -0.2512 
     48 C48       -77.2370   25.8821  -70.6057 C.3       11 UNK         0.0225 
     49 N         -76.3990   22.7530  -74.1663 N.am      5 UNK        -0.4615 
     50 C         -76.2742   22.2800  -75.4138 C.2       4 UNK         0.5053 
     51 O         -75.3037   22.5134  -76.1348 O.2       4 UNK        -0.5105 
     52 CA        -77.4347   21.4334  -75.9689 C.3       4 UNK         0.0263 
     53 CB        -77.0764   19.9394  -75.9162 C.3       4 UNK        -0.1981 
     54 N         -78.7306   21.6414  -75.3077 N.am      4 UNK        -0.4224 
     55 C         -79.3975   22.8029  -75.2456 C.2       3 UNK         0.4895 
     56 O         -78.9521   23.8755  -75.6582 O.2       3 UNK        -0.5091 
     57 CA        -80.7713   22.7576  -74.5562 C.3       3 UNK         0.0250 
     58 CB        -80.6223   22.9762  -73.0423 C.3       3 UNK        -0.1996 
     59 N         -81.6900   23.7656  -75.0859 N.am      3 UNK        -0.4254 
     60 C         -82.2175   23.7659  -76.3183 C.2       2 UNK         0.5004 
     61 O         -82.0206   22.8748  -77.1461 O.2       2 UNK        -0.5226 
     62 CA        -83.1491   24.9363  -76.6848 C.3       2 UNK         0.0269 
     63 CB        -84.6036   24.4489  -76.8020 C.3       2 UNK        -0.1926 
     64 N         -83.1002   26.0311  -75.7098 N.am      2 UNK        -0.4687 
     65 C         -82.2518   27.0688  -75.7593 C.2       1 UNK         0.5165 
     66 O         -81.4323   27.2241  -76.6648 O.2       1 UNK        -0.5079 
     67 H67       -86.5707   27.3258  -73.3806 H         1 UNK         0.0900 
     68 H68       -86.2745   28.8963  -72.6298 H         1 UNK         0.0900 
     69 H69       -85.3878   27.4737  -72.0789 H         1 UNK         0.0900 
     70 H70       -83.2830   27.4379  -72.8381 H         1 UNK         0.2959 
     71 H71       -82.4753   29.0683  -75.0936 H         1 UNK         0.1079 
     72 H72       -80.4409   27.2188  -73.8384 H         1 UNK         0.0837 
     73 H73       -81.2022   28.3301  -72.7459 H         1 UNK         0.0837 
     74 H74       -79.8289   30.0559  -72.0105 H         1 UNK         0.0685 
     75 H75       -78.7650   31.0657  -72.9480 H         1 UNK         0.0685 
     76 H76       -79.1071   27.7059  -71.3985 H         1 UNK         0.1434 
     77 H77       -74.9061   26.8699  -71.6378 H         1 UNK         0.1329 
     78 H78       -76.5008   30.3683  -73.5233 H         1 UNK         0.1335 
     79 H79       -74.2188   29.7779  -73.9107 H         1 UNK         0.0680 
     80 H80       -73.8153   28.1030  -73.7203 H         1 UNK         0.0680 
     81 H81       -73.6207   31.5745  -72.6446 H         1 UNK         0.1032 
     82 H82       -73.0245   31.6229  -71.0215 H         1 UNK         0.1032 
     83 H83       -71.5116   32.7218  -72.6679 H         1 UNK         0.0461 
     84 H84       -68.5926   30.4776  -71.0356 H         1 UNK         0.3453 
     85 H85       -69.2873   30.0829  -72.5891 H         1 UNK         0.3453 
     86 H86       -71.7404   30.3039  -74.1707 H         1 UNK         0.2984 
     87 H87       -70.8992   31.0990  -76.6963 H         1 UNK         0.0554 
     88 H88       -68.6889   30.6408  -77.7514 H         1 UNK         0.0847 
     89 H89       -67.8849   30.8952  -76.2018 H         1 UNK         0.0847 
     90 H90       -68.7207   32.2222  -76.9965 H         1 UNK         0.0847 
     91 H91       -69.2428   28.8377  -75.8818 H         1 UNK         0.3141 
     92 H92       -70.1752   26.7835  -76.2594 H         1 UNK         0.0743 
     93 H93       -70.1110   27.1193  -73.7877 H         1 UNK         0.0784 
     94 H94       -71.8496   26.8977  -73.6883 H         1 UNK         0.0784 
     95 H95       -70.8179   25.5619  -74.1858 H         1 UNK         0.0784 
     96 H96       -72.9762   26.1004  -75.7396 H         1 UNK         0.3213 
     97 H97       -73.9627   26.0929  -79.1120 H         1 UNK         0.0855 
     98 H98       -73.1064   23.5179  -77.6791 H         1 UNK         0.0814 
     99 H99       -72.6053   24.0072  -79.2922 H         1 UNK         0.0814 
    100 H100      -74.2911   23.6252  -78.9801 H         1 UNK         0.0814 
    101 H101      -74.9986   24.7941  -76.7447 H         1 UNK         0.3105 
    102 H102      -76.2018   27.5123  -75.0844 H         1 UNK         0.0547 
    103 H103      -78.5915   26.8714  -75.4472 H         1 UNK         0.0837 
    104 H104      -77.9813   27.8578  -76.7624 H         1 UNK         0.0837 
    105 H105      -78.1619   26.1226  -76.9827 H         1 UNK         0.0837 
    106 H106      -77.2179   24.8777  -74.9844 H         1 UNK         0.3020 
    107 H107      -74.4805   23.2098  -73.5744 H         1 UNK         0.1245 
    108 H108      -75.0681   24.5431  -71.5485 H         1 UNK         0.0781 
    109 H109      -75.6468   22.9127  -71.4936 H         1 UNK         0.0781 
    110 H110      -76.3932   25.7182  -69.9339 H         1 UNK         0.0836 
    111 H111      -78.1094   26.0014  -69.9614 H         1 UNK         0.0836 
    112 H112      -77.2360   22.5317  -73.6477 H         1 UNK         0.3022 
    113 H113      -77.5584   21.7176  -77.0160 H         1 UNK         0.0747 
    114 H114      -77.8354   19.3302  -76.4072 H         1 UNK         0.0793 
    115 H115      -76.1311   19.7458  -76.4257 H         1 UNK         0.0793 
    116 H116      -76.9713   19.5856  -74.8897 H         1 UNK         0.0793 
    117 H117      -79.1656   20.8176  -74.9169 H         1 UNK         0.3047 
    118 H118      -81.2148   21.7745  -74.7285 H         1 UNK         0.0822 
    119 H119      -79.9343   22.2530  -72.6023 H         1 UNK         0.0807 
    120 H120      -81.5777   22.8638  -72.5293 H         1 UNK         0.0807 
    121 H121      -80.2375   23.9716  -72.8172 H         1 UNK         0.0807 
    122 H122      -81.8874   24.5549  -74.4908 H         1 UNK         0.2946 
    123 H123      -82.8323   25.3052  -77.6633 H         1 UNK         0.1144 
    124 H124      -84.6922   23.6574  -77.5476 H         1 UNK         0.0793 
    125 H125      -85.2683   25.2564  -77.1099 H         1 UNK         0.0793 
    126 H126      -84.9744   24.0495  -75.8572 H         1 UNK         0.0793 
    127 H127      -83.7574   25.9924  -74.9441 H         1 UNK         0.2896 
@<TRIPOS>BOND
     1    1    2 1    
     2    1   67 1    
     3    1   68 1    
     4    1   69 1    
     5    2    3 2    
     6    2    4 am   BACKBONE|DICT|INTERRES
     7    4    5 1    
     8    4   70 1    
     9    5    6 1    
    10    5   65 1    
    11    5   71 1    
    12    6    7 1    
    13    6   72 1    
    14    6   73 1    
    15    7    8 1    
    16    8    9 1    
    17    8   74 1    
    18    8   75 1    
    19    9   10 ar   
    20    9   14 ar   
    21   10   11 ar   
    22   10   76 1    
    23   11   12 ar   
    24   11   48 1    
    25   12   13 ar   
    26   12   77 1    
    27   13   14 ar   
    28   13   15 1    
    29   14   78 1    
    30   15   16 1    
    31   15   79 1    
    32   15   80 1    
    33   16   17 1    
    34   17   18 1    
    35   17   81 1    
    36   17   82 1    
    37   18   19 1    
    38   18   22 1    
    39   18   83 1    
    40   19   20 am   BACKBONE|DICT|INTERRES
    41   19   21 2    
    42   20   84 1    
    43   20   85 1    
    44   22   23 am   BACKBONE|DICT|INTERRES
    45   22   86 1    
    46   23   24 2    
    47   23   25 1    
    48   25   26 1    
    49   25   27 1    
    50   25   87 1    
    51   26   88 1    
    52   26   89 1    
    53   26   90 1    
    54   27   28 am   BACKBONE|DICT|INTERRES
    55   27   91 1    
    56   28   29 2    
    57   28   30 1    
    58   30   31 1    
    59   30   32 1    
    60   30   92 1    
    61   31   93 1    
    62   31   94 1    
    63   31   95 1    
    64   32   33 am   BACKBONE|DICT|INTERRES
    65   32   96 1    
    66   33   34 2    
    67   33   35 1    
    68   35   36 1    
    69   35   37 1    
    70   35   97 1    
    71   36   98 1    
    72   36   99 1    
    73   36  100 1    
    74   37   38 am   BACKBONE|DICT|INTERRES
    75   37  101 1    
    76   38   39 2    
    77   38   40 1    
    78   40   41 1    
    79   40   42 1    
    80   40  102 1    
    81   41  103 1    
    82   41  104 1    
    83   41  105 1    
    84   42   43 am   BACKBONE|DICT|INTERRES
    85   42  106 1    
    86   43   44 2    
    87   43   45 1    
    88   45   46 1    
    89   45   49 1    
    90   45  107 1    
    91   46   47 1    
    92   46  108 1    
    93   46  109 1    
    94   47   48 1    
    95   48  110 1    
    96   48  111 1    
    97   49   50 am   BACKBONE|DICT|INTERRES
    98   49  112 1    
    99   50   51 2    
   100   50   52 1    
   101   52   53 1    
   102   52   54 1    
   103   52  113 1    
   104   53  114 1    
   105   53  115 1    
   106   53  116 1    
   107   54   55 am   BACKBONE|DICT|INTERRES
   108   54  117 1    
   109   55   56 2    
   110   55   57 1    
   111   57   58 1    
   112   57   59 1    
   113   57  118 1    
   114   58  119 1    
   115   58  120 1    
   116   58  121 1    
   117   59   60 am   BACKBONE|DICT|INTERRES
   118   59  122 1    
   119   60   61 2    
   120   60   62 1    
   121   62   63 1    
   122   62   64 1    
   123   62  123 1    
   124   63  124 1    
   125   63  125 1    
   126   63  126 1    
   127   64   65 am   BACKBONE|DICT|INTERRES
   128   64  127 1    
   129   65   66 2    
@<TRIPOS>SUBSTRUCTURE
     1 UNK         1 GROUP             0       ****    0 ROOT    
