@<TRIPOS>MOLECULE
3R135
127   129    1
SMALL
USER_CHARGES


@<TRIPOS>ATOM
      1 CA        -84.4044   30.5875  -73.7568 C.3       0 UNK        -0.1998 
      2 C         -83.2242   29.6306  -73.6801 C.2       0 UNK         0.4909 
      3 O         -82.3514   29.6635  -74.5480 O.2       0 UNK        -0.5240 
      4 N         -83.1857   28.7864  -72.6421 N.am      1 UNK        -0.4739 
      5 CA        -82.1526   27.7667  -72.4313 C.3       1 UNK         0.0864 
      6 C6        -82.2032   27.1930  -70.9912 C.3       11 UNK        -0.0881 
      7 S7        -82.0477   28.3873  -69.6108 S.3       11 UNK        -0.2682 
      8 C8        -80.9788   29.7355  -70.2361 C.3       11 UNK         0.0289 
      9 C9        -79.5114   29.3855  -70.4980 C.ar      11 UNK        -0.0687 
     10 C10       -78.9528   28.1307  -70.2121 C.ar      11 UNK        -0.0823 
     11 C11       -77.6018   27.8773  -70.4635 C.ar      11 UNK        -0.0830 
     12 C12       -76.7910   28.9039  -70.9542 C.ar      11 UNK        -0.1021 
     13 C13       -77.3357   30.1460  -71.2833 C.ar      11 UNK        -0.0753 
     14 C14       -78.6935   30.3790  -71.0480 C.ar      11 UNK        -0.0933 
     15 C15       -76.4661   31.2311  -71.9050 C.3       11 UNK         0.0166 
     16 S16       -76.3707   31.0554  -73.7188 S.3       11 UNK        -0.2615 
     17 C17       -75.0112   29.8465  -73.9142 C.3       11 UNK        -0.0865 
     18 CA        -73.7401   30.3786  -74.6306 C.3       10 UNK         0.0862 
     19 C         -73.1402   31.6275  -73.9130 C.2       10 UNK         0.5551 
     20 N         -72.2537   31.4507  -72.9395 N.am      10 UNK        -0.7319 
     21 O         -73.4634   32.7615  -74.2573 O.2       10 UNK        -0.5018 
     22 N         -72.7587   29.2914  -74.8112 N.am      10 UNK        -0.4509 
     23 C         -71.6322   29.4030  -75.5292 C.2       10 UNK         0.4899 
     24 O         -71.3914   30.3467  -76.2826 O.2       10 UNK        -0.4839 
     25 CA        -70.5593   28.3244  -75.3274 C.3       9 UNK         0.0222 
     26 CB        -69.7765   28.6200  -74.0288 C.3       9 UNK        -0.1966 
     27 N         -71.0949   26.9581  -75.3280 N.am      9 UNK        -0.4218 
     28 C         -70.3327   25.8550  -75.3986 C.2       9 UNK         0.5020 
     29 O         -69.1014   25.8717  -75.4493 O.2       9 UNK        -0.5274 
     30 CA        -71.0503   24.4953  -75.4359 C.3       8 UNK         0.0270 
     31 CB        -71.5956   24.1128  -74.0499 C.3       8 UNK        -0.1976 
     32 N         -72.1167   24.4505  -76.4368 N.am      8 UNK        -0.4313 
     33 C         -71.9088   24.4774  -77.7621 C.2       8 UNK         0.5041 
     34 O         -70.7924   24.4677  -78.2830 O.2       8 UNK        -0.5577 
     35 CA        -73.1512   24.5341  -78.6665 C.3       7 UNK         0.0284 
     36 CB        -73.6921   23.1201  -78.9323 C.3       7 UNK        -0.1958 
     37 N         -74.2158   25.3721  -78.1140 N.am      7 UNK        -0.4454 
     38 C         -74.1304   26.6968  -77.9277 C.2       7 UNK         0.5089 
     39 O         -73.1717   27.3831  -78.2808 O.2       7 UNK        -0.5125 
     40 CA        -75.2960   27.3605  -77.1764 C.3       6 UNK         0.0408 
     41 CB        -76.4577   27.6775  -78.1300 C.3       6 UNK        -0.1791 
     42 N         -75.7812   26.5488  -76.0564 N.am      6 UNK        -0.4762 
     43 C         -75.0557   26.2360  -74.9720 C.2       6 UNK         0.5007 
     44 O         -73.8987   26.6148  -74.7860 O.2       6 UNK        -0.5032 
     45 CA        -75.7403   25.3513  -73.9169 C.3       5 UNK         0.0783 
     46 C46       -76.6650   26.2271  -73.0426 C.3       11 UNK        -0.0857 
     47 S47       -77.4090   25.3553  -71.6228 S.3       11 UNK        -0.2512 
     48 C48       -77.0217   26.4855  -70.2378 C.3       11 UNK         0.0225 
     49 N         -76.4332   24.2280  -74.5519 N.am      5 UNK        -0.4615 
     50 C         -75.8043   23.2242  -75.1816 C.2       4 UNK         0.5053 
     51 O         -74.5797   23.1198  -75.2442 O.2       4 UNK        -0.5105 
     52 CA        -76.6826   22.1893  -75.9053 C.3       4 UNK         0.0263 
     53 CB        -77.1499   21.1008  -74.9263 C.3       4 UNK        -0.1981 
     54 N         -77.8456   22.7877  -76.5639 N.am      4 UNK        -0.4224 
     55 C         -77.7866   23.7000  -77.5458 C.2       3 UNK         0.4895 
     56 O         -76.7378   24.0858  -78.0584 O.2       3 UNK        -0.5091 
     57 CA        -79.1155   24.3269  -78.0013 C.3       3 UNK         0.0250 
     58 CB        -79.6725   23.5771  -79.2214 C.3       3 UNK        -0.1996 
     59 N         -80.1342   24.3748  -76.9466 N.am      3 UNK        -0.4254 
     60 C         -80.0131   25.0540  -75.7975 C.2       2 UNK         0.5004 
     61 O         -79.0219   25.7230  -75.4921 O.2       2 UNK        -0.5226 
     62 CA        -81.1622   24.8942  -74.7997 C.3       2 UNK         0.0269 
     63 CB        -80.9831   23.6068  -73.9746 C.3       2 UNK        -0.1926 
     64 N         -81.1950   26.0399  -73.8940 N.am      2 UNK        -0.4687 
     65 C         -82.3154   26.6157  -73.4452 C.2       1 UNK         0.5165 
     66 O         -83.4484   26.2378  -73.7580 O.2       1 UNK        -0.5079 
     67 H67       -84.0522   31.6187  -73.7532 H         1 UNK         0.0900 
     68 H68       -85.0880   30.4599  -72.9176 H         1 UNK         0.0900 
     69 H69       -84.9629   30.4208  -74.6775 H         1 UNK         0.0900 
     70 H70       -83.9374   28.7884  -71.9677 H         1 UNK         0.2959 
     71 H71       -81.1763   28.2257  -72.6007 H         1 UNK         0.1079 
     72 H72       -83.1419   26.6564  -70.8370 H         1 UNK         0.0837 
     73 H73       -81.4201   26.4433  -70.8638 H         1 UNK         0.0837 
     74 H74       -80.9982   30.5297  -69.4886 H         1 UNK         0.0685 
     75 H75       -81.4183   30.1695  -71.1337 H         1 UNK         0.0685 
     76 H76       -79.5562   27.3355  -69.8014 H         1 UNK         0.1434 
     77 H77       -75.7392   28.7196  -71.1146 H         1 UNK         0.1329 
     78 H78       -79.1166   31.3440  -71.2930 H         1 UNK         0.1335 
     79 H79       -76.8801   32.2137  -71.6737 H         1 UNK         0.0680 
     80 H80       -75.4648   31.2179  -71.4714 H         1 UNK         0.0680 
     81 H81       -74.7338   29.4363  -72.9447 H         1 UNK         0.1032 
     82 H82       -75.4245   29.0144  -74.4810 H         1 UNK         0.1032 
     83 H83       -74.0410   30.7015  -75.6293 H         1 UNK         0.0461 
     84 H84       -71.9751   30.5255  -72.6572 H         1 UNK         0.3453 
     85 H85       -71.8576   32.2572  -72.4831 H         1 UNK         0.3453 
     86 H86       -72.9119   28.4537  -74.2659 H         1 UNK         0.2984 
     87 H87       -69.8692   28.4075  -76.1699 H         1 UNK         0.0554 
     88 H88       -68.8699   28.0203  -73.9548 H         1 UNK         0.0847 
     89 H89       -70.3788   28.4226  -73.1416 H         1 UNK         0.0847 
     90 H90       -69.4644   29.6647  -73.9863 H         1 UNK         0.0847 
     91 H91       -72.1078   26.8539  -75.3070 H         1 UNK         0.3141 
     92 H92       -70.3097   23.7421  -75.7138 H         1 UNK         0.0743 
     93 H93       -70.7970   24.1081  -73.3069 H         1 UNK         0.0784 
     94 H94       -72.0335   23.1145  -74.0593 H         1 UNK         0.0784 
     95 H95       -72.3581   24.8078  -73.7007 H         1 UNK         0.0784 
     96 H96       -73.0678   24.3887  -76.0913 H         1 UNK         0.3213 
     97 H97       -72.8472   24.9693  -79.6209 H         1 UNK         0.0855 
     98 H98       -74.0354   22.6406  -78.0149 H         1 UNK         0.0814 
     99 H99       -72.9214   22.4822  -79.3667 H         1 UNK         0.0814 
    100 H100      -74.5285   23.1406  -79.6312 H         1 UNK         0.0814 
    101 H101      -75.0869   24.9037  -77.8708 H         1 UNK         0.3105 
    102 H102      -74.9289   28.3042  -76.7686 H         1 UNK         0.0547 
    103 H103      -77.2708   28.1856  -77.6112 H         1 UNK         0.0837 
    104 H104      -76.1285   28.3330  -78.9372 H         1 UNK         0.0837 
    105 H105      -76.8631   26.7761  -78.5897 H         1 UNK         0.0837 
    106 H106      -76.7288   26.1973  -76.1179 H         1 UNK         0.3020 
    107 H107      -74.9540   24.9419  -73.2781 H         1 UNK         0.1245 
    108 H108      -77.4713   26.6676  -73.6307 H         1 UNK         0.0781 
    109 H109      -76.0807   27.0647  -72.6681 H         1 UNK         0.0781 
    110 H110      -77.4221   26.0656  -69.3139 H         1 UNK         0.0836 
    111 H111      -75.9398   26.5354  -70.1049 H         1 UNK         0.0836 
    112 H112      -77.4418   24.2840  -74.5817 H         1 UNK         0.3022 
    113 H113      -76.0702   21.7180  -76.6769 H         1 UNK         0.0747 
    114 H114      -77.7030   20.3148  -75.4408 H         1 UNK         0.0793 
    115 H115      -76.2981   20.6270  -74.4360 H         1 UNK         0.0793 
    116 H116      -77.7916   21.5074  -74.1434 H         1 UNK         0.0793 
    117 H117      -78.7544   22.5224  -76.2152 H         1 UNK         0.3047 
    118 H118      -78.9031   25.3555  -78.2997 H         1 UNK         0.0822 
    119 H119      -80.5648   24.0648  -79.6146 H         1 UNK         0.0807 
    120 H120      -79.9308   22.5451  -78.9802 H         1 UNK         0.0807 
    121 H121      -78.9395   23.5490  -80.0292 H         1 UNK         0.0807 
    122 H122      -80.9767   23.8424  -77.1124 H         1 UNK         0.2946 
    123 H123      -82.0943   24.8366  -75.3673 H         1 UNK         0.1144 
    124 H124      -81.8042   23.4725  -73.2701 H         1 UNK         0.0793 
    125 H125      -80.0537   23.6207  -73.4030 H         1 UNK         0.0793 
    126 H126      -80.9624   22.7241  -74.6147 H         1 UNK         0.0793 
    127 H127      -80.2881   26.4238  -73.6599 H         1 UNK         0.2896 
@<TRIPOS>BOND
     1    1    2 1    
     2    1   67 1    
     3    1   68 1    
     4    1   69 1    
     5    2    3 2    
     6    2    4 am   BACKBONE|DICT|INTERRES
     7    4    5 1    
     8    4   70 1    
     9    5    6 1    
    10    5   65 1    
    11    5   71 1    
    12    6    7 1    
    13    6   72 1    
    14    6   73 1    
    15    7    8 1    
    16    8    9 1    
    17    8   74 1    
    18    8   75 1    
    19    9   10 ar   
    20    9   14 ar   
    21   10   11 ar   
    22   10   76 1    
    23   11   12 ar   
    24   11   48 1    
    25   12   13 ar   
    26   12   77 1    
    27   13   14 ar   
    28   13   15 1    
    29   14   78 1    
    30   15   16 1    
    31   15   79 1    
    32   15   80 1    
    33   16   17 1    
    34   17   18 1    
    35   17   81 1    
    36   17   82 1    
    37   18   19 1    
    38   18   22 1    
    39   18   83 1    
    40   19   20 am   BACKBONE|DICT|INTERRES
    41   19   21 2    
    42   20   84 1    
    43   20   85 1    
    44   22   23 am   BACKBONE|DICT|INTERRES
    45   22   86 1    
    46   23   24 2    
    47   23   25 1    
    48   25   26 1    
    49   25   27 1    
    50   25   87 1    
    51   26   88 1    
    52   26   89 1    
    53   26   90 1    
    54   27   28 am   BACKBONE|DICT|INTERRES
    55   27   91 1    
    56   28   29 2    
    57   28   30 1    
    58   30   31 1    
    59   30   32 1    
    60   30   92 1    
    61   31   93 1    
    62   31   94 1    
    63   31   95 1    
    64   32   33 am   BACKBONE|DICT|INTERRES
    65   32   96 1    
    66   33   34 2    
    67   33   35 1    
    68   35   36 1    
    69   35   37 1    
    70   35   97 1    
    71   36   98 1    
    72   36   99 1    
    73   36  100 1    
    74   37   38 am   BACKBONE|DICT|INTERRES
    75   37  101 1    
    76   38   39 2    
    77   38   40 1    
    78   40   41 1    
    79   40   42 1    
    80   40  102 1    
    81   41  103 1    
    82   41  104 1    
    83   41  105 1    
    84   42   43 am   BACKBONE|DICT|INTERRES
    85   42  106 1    
    86   43   44 2    
    87   43   45 1    
    88   45   46 1    
    89   45   49 1    
    90   45  107 1    
    91   46   47 1    
    92   46  108 1    
    93   46  109 1    
    94   47   48 1    
    95   48  110 1    
    96   48  111 1    
    97   49   50 am   BACKBONE|DICT|INTERRES
    98   49  112 1    
    99   50   51 2    
   100   50   52 1    
   101   52   53 1    
   102   52   54 1    
   103   52  113 1    
   104   53  114 1    
   105   53  115 1    
   106   53  116 1    
   107   54   55 am   BACKBONE|DICT|INTERRES
   108   54  117 1    
   109   55   56 2    
   110   55   57 1    
   111   57   58 1    
   112   57   59 1    
   113   57  118 1    
   114   58  119 1    
   115   58  120 1    
   116   58  121 1    
   117   59   60 am   BACKBONE|DICT|INTERRES
   118   59  122 1    
   119   60   61 2    
   120   60   62 1    
   121   62   63 1    
   122   62   64 1    
   123   62  123 1    
   124   63  124 1    
   125   63  125 1    
   126   63  126 1    
   127   64   65 am   BACKBONE|DICT|INTERRES
   128   64  127 1    
   129   65   66 2    
@<TRIPOS>SUBSTRUCTURE
     1 UNK         1 GROUP             0       ****    0 ROOT    
