@<TRIPOS>MOLECULE
3R135
127   129    1
SMALL
USER_CHARGES


@<TRIPOS>ATOM
      1 CA        -73.1190   26.4899  -70.6105 C.3       0 UNK        -0.1998 
      2 C         -74.5043   25.8765  -70.4848 C.2       0 UNK         0.4909 
      3 O         -74.6574   24.8347  -69.8462 O.2       0 UNK        -0.5240 
      4 N         -75.5164   26.5196  -71.0793 N.am      1 UNK        -0.4739 
      5 CA        -76.8965   26.0351  -71.1022 C.3       1 UNK         0.0864 
      6 C6        -77.8958   27.1869  -71.3639 C.3       11 UNK        -0.0881 
      7 S7        -79.6407   26.6576  -71.2183 S.3       11 UNK        -0.2682 
      8 C8        -80.5018   28.2489  -70.9995 C.3       11 UNK         0.0289 
      9 C9        -80.1354   29.2612  -72.0765 C.ar      11 UNK        -0.0687 
     10 C10       -80.3678   28.9769  -73.4256 C.ar      11 UNK        -0.0823 
     11 C11       -79.9763   29.8810  -74.4171 C.ar      11 UNK        -0.0830 
     12 C12       -79.4030   31.1010  -74.0489 C.ar      11 UNK        -0.1021 
     13 C13       -79.1444   31.3872  -72.7050 C.ar      11 UNK        -0.0753 
     14 C14       -79.5222   30.4666  -71.7236 C.ar      11 UNK        -0.0933 
     15 C15       -78.3988   32.6560  -72.3053 C.3       11 UNK         0.0166 
     16 S16       -76.8692   32.9369  -73.2668 S.3       11 UNK        -0.2615 
     17 C17       -76.0294   31.3116  -73.2204 C.3       11 UNK        -0.0865 
     18 CA        -74.6992   31.3236  -72.4135 C.3       10 UNK         0.0862 
     19 C         -74.8823   30.9883  -70.8992 C.2       10 UNK         0.5551 
     20 N         -73.8883   30.4089  -70.2364 N.am      10 UNK        -0.7319 
     21 O         -75.9199   31.2729  -70.3075 O.2       10 UNK        -0.5018 
     22 N         -73.6403   30.5544  -73.0928 N.am      10 UNK        -0.4509 
     23 C         -73.6580   29.2358  -73.3245 C.2       10 UNK         0.4899 
     24 O         -74.5798   28.4847  -72.9919 O.2       10 UNK        -0.4839 
     25 CA        -72.4218   28.6617  -74.0285 C.3       9 UNK         0.0222 
     26 CB        -71.1646   28.7526  -73.1399 C.3       9 UNK        -0.1966 
     27 N         -72.6862   27.2718  -74.3864 N.am      9 UNK        -0.4218 
     28 C         -72.0597   26.5723  -75.3384 C.2       9 UNK         0.5020 
     29 O         -71.1309   27.0172  -76.0157 O.2       9 UNK        -0.5274 
     30 CA        -72.5372   25.1349  -75.5919 C.3       8 UNK         0.0270 
     31 CB        -73.5906   24.6157  -74.5910 C.3       8 UNK        -0.1976 
     32 N         -73.0790   25.0638  -76.9456 N.am      8 UNK        -0.4313 
     33 C         -72.8796   24.0609  -77.8105 C.2       8 UNK         0.5041 
     34 O         -72.1800   23.0782  -77.5568 O.2       8 UNK        -0.5577 
     35 CA        -73.5757   24.1401  -79.1843 C.3       7 UNK         0.0284 
     36 CB        -74.3696   22.8531  -79.4748 C.3       7 UNK        -0.1958 
     37 N         -74.4884   25.2811  -79.2801 N.am      7 UNK        -0.4454 
     38 C         -74.2065   26.4482  -79.8763 C.2       7 UNK         0.5089 
     39 O         -73.1532   26.6742  -80.4723 O.2       7 UNK        -0.5125 
     40 CA        -75.2661   27.5659  -79.7833 C.3       6 UNK         0.0408 
     41 CB        -76.0919   27.6286  -81.0777 C.3       6 UNK        -0.1791 
     42 N         -76.1759   27.4327  -78.6413 N.am      6 UNK        -0.4762 
     43 C         -75.8082   27.4689  -77.3520 C.2       6 UNK         0.5007 
     44 O         -74.6528   27.6772  -76.9849 O.2       6 UNK        -0.5032 
     45 CA        -76.8870   27.1443  -76.2981 C.3       5 UNK         0.0783 
     46 C46       -77.4480   28.4176  -75.6274 C.3       11 UNK        -0.0857 
     47 S47       -78.4739   29.4675  -76.7266 S.3       11 UNK        -0.2512 
     48 C48       -80.0975   29.5028  -75.8867 C.3       11 UNK         0.0225 
     49 N         -77.9580   26.2618  -76.7736 N.am      5 UNK        -0.4615 
     50 C         -77.7972   25.0331  -77.2779 C.2       4 UNK         0.5053 
     51 O         -76.6977   24.5252  -77.5023 O.2       4 UNK        -0.5105 
     52 CA        -79.0889   24.2454  -77.5535 C.3       4 UNK         0.0263 
     53 CB        -78.8324   22.9582  -78.3585 C.3       4 UNK        -0.1981 
     54 N         -79.7350   23.8939  -76.2906 N.am      4 UNK        -0.4224 
     55 C         -80.4672   24.7110  -75.5249 C.2       3 UNK         0.4895 
     56 O         -80.7724   25.8583  -75.8521 O.2       3 UNK        -0.5091 
     57 CA        -80.8973   24.1773  -74.1474 C.3       3 UNK         0.0250 
     58 CB        -81.9928   23.1002  -74.2720 C.3       3 UNK        -0.1996 
     59 N         -79.7724   23.7236  -73.3155 N.am      3 UNK        -0.4254 
     60 C         -78.9252   22.7007  -73.5166 C.2       2 UNK         0.5004 
     61 O         -79.0236   21.9083  -74.4557 O.2       2 UNK        -0.5226 
     62 CA        -77.7735   22.5296  -72.5034 C.3       2 UNK         0.0269 
     63 CB        -76.4864   21.9959  -73.1706 C.3       2 UNK        -0.1926 
     64 N         -77.4920   23.7342  -71.7058 N.am      2 UNK        -0.4687 
     65 C         -77.0272   24.9127  -72.1499 C.2       1 UNK         0.5165 
     66 O         -76.7482   25.1504  -73.3258 O.2       1 UNK        -0.5079 
     67 H67       -73.1772   27.5656  -70.7687 H         1 UNK         0.0900 
     68 H68       -72.5800   26.0418  -71.4443 H         1 UNK         0.0900 
     69 H69       -72.5443   26.3191  -69.7006 H         1 UNK         0.0900 
     70 H70       -75.3183   27.3292  -71.6622 H         1 UNK         0.2959 
     71 H71       -77.1230   25.6244  -70.1154 H         1 UNK         0.1079 
     72 H72       -77.7351   27.6218  -72.3524 H         1 UNK         0.0837 
     73 H73       -77.7209   27.9922  -70.6483 H         1 UNK         0.0837 
     74 H74       -81.5785   28.0759  -71.0223 H         1 UNK         0.0685 
     75 H75       -80.2723   28.6368  -70.0059 H         1 UNK         0.0685 
     76 H76       -80.8071   28.0277  -73.7025 H         1 UNK         0.1434 
     77 H77       -79.0900   31.7966  -74.8157 H         1 UNK         0.1329 
     78 H78       -79.3126   30.6772  -70.6836 H         1 UNK         0.1335 
     79 H79       -79.0611   33.5121  -72.4380 H         1 UNK         0.0680 
     80 H80       -78.1363   32.6305  -71.2467 H         1 UNK         0.0680 
     81 H81       -75.8313   31.0641  -74.2638 H         1 UNK         0.1032 
     82 H82       -76.6889   30.5182  -72.8665 H         1 UNK         0.1032 
     83 H83       -74.3185   32.3455  -72.4177 H         1 UNK         0.0461 
     84 H84       -73.0185   30.2018  -70.6984 H         1 UNK         0.3453 
     85 H85       -74.0041   30.2066  -69.2563 H         1 UNK         0.3453 
     86 H86       -72.8351   31.0895  -73.3857 H         1 UNK         0.2984 
     87 H87       -72.2657   29.2367  -74.9437 H         1 UNK         0.0554 
     88 H88       -70.2851   28.3699  -73.6577 H         1 UNK         0.0847 
     89 H89       -71.2767   28.1840  -72.2172 H         1 UNK         0.0847 
     90 H90       -70.9431   29.7839  -72.8638 H         1 UNK         0.0847 
     91 H91       -73.4979   26.8771  -73.9279 H         1 UNK         0.3141 
     92 H92       -71.6499   24.5036  -75.5106 H         1 UNK         0.0743 
     93 H93       -74.5189   25.1828  -74.6528 H         1 UNK         0.0784 
     94 H94       -73.8355   23.5724  -74.7910 H         1 UNK         0.0784 
     95 H95       -73.2292   24.6650  -73.5633 H         1 UNK         0.0784 
     96 H96       -73.6088   25.8764  -77.2435 H         1 UNK         0.3213 
     97 H97       -72.7884   24.2261  -79.9361 H         1 UNK         0.0855 
     98 H98       -75.1359   22.6726  -78.7200 H         1 UNK         0.0814 
     99 H99       -73.7141   21.9814  -79.4876 H         1 UNK         0.0814 
    100 H100      -74.8609   22.9004  -80.4467 H         1 UNK         0.0814 
    101 H101      -75.3673   25.1801  -78.7776 H         1 UNK         0.3105 
    102 H102      -74.7327   28.5121  -79.6713 H         1 UNK         0.0547 
    103 H103      -75.4456   27.7599  -81.9468 H         1 UNK         0.0837 
    104 H104      -76.6666   26.7150  -81.2351 H         1 UNK         0.0837 
    105 H105      -76.7879   28.4675  -81.0657 H         1 UNK         0.0837 
    106 H106      -77.1487   27.2565  -78.8479 H         1 UNK         0.3020 
    107 H107      -76.3656   26.5816  -75.5208 H         1 UNK         0.1245 
    108 H108      -76.6334   29.0260  -75.2318 H         1 UNK         0.0781 
    109 H109      -78.0265   28.1164  -74.7549 H         1 UNK         0.0781 
    110 H110      -80.5752   28.5291  -76.0009 H         1 UNK         0.0836 
    111 H111      -80.7436   30.2226  -76.3906 H         1 UNK         0.0836 
    112 H112      -78.9051   26.5740  -76.5925 H         1 UNK         0.3022 
    113 H113      -79.7569   24.8834  -78.1359 H         1 UNK         0.0747 
    114 H114      -79.7646   22.4403  -78.5845 H         1 UNK         0.0793 
    115 H115      -78.3464   23.1821  -79.3091 H         1 UNK         0.0793 
    116 H116      -78.1872   22.2648  -77.8169 H         1 UNK         0.0793 
    117 H117      -79.4745   23.0006  -75.8772 H         1 UNK         0.3047 
    118 H118      -81.3338   25.0218  -73.6111 H         1 UNK         0.0822 
    119 H119      -82.3475   22.7828  -73.2915 H         1 UNK         0.0807 
    120 H120      -81.6442   22.2145  -74.8038 H         1 UNK         0.0807 
    121 H121      -82.8544   23.4858  -74.8186 H         1 UNK         0.0807 
    122 H122      -79.5710   24.3213  -72.5251 H         1 UNK         0.2946 
    123 H123      -78.1145   21.7706  -71.7974 H         1 UNK         0.1144 
    124 H124      -75.6744   21.8992  -72.4499 H         1 UNK         0.0793 
    125 H125      -76.1460   22.6486  -73.9751 H         1 UNK         0.0793 
    126 H126      -76.6510   21.0093  -73.6054 H         1 UNK         0.0793 
    127 H127      -77.6940   23.6491  -70.7185 H         1 UNK         0.2896 
@<TRIPOS>BOND
     1    1    2 1    
     2    1   67 1    
     3    1   68 1    
     4    1   69 1    
     5    2    3 2    
     6    2    4 am   BACKBONE|DICT|INTERRES
     7    4    5 1    
     8    4   70 1    
     9    5    6 1    
    10    5   65 1    
    11    5   71 1    
    12    6    7 1    
    13    6   72 1    
    14    6   73 1    
    15    7    8 1    
    16    8    9 1    
    17    8   74 1    
    18    8   75 1    
    19    9   10 ar   
    20    9   14 ar   
    21   10   11 ar   
    22   10   76 1    
    23   11   12 ar   
    24   11   48 1    
    25   12   13 ar   
    26   12   77 1    
    27   13   14 ar   
    28   13   15 1    
    29   14   78 1    
    30   15   16 1    
    31   15   79 1    
    32   15   80 1    
    33   16   17 1    
    34   17   18 1    
    35   17   81 1    
    36   17   82 1    
    37   18   19 1    
    38   18   22 1    
    39   18   83 1    
    40   19   20 am   BACKBONE|DICT|INTERRES
    41   19   21 2    
    42   20   84 1    
    43   20   85 1    
    44   22   23 am   BACKBONE|DICT|INTERRES
    45   22   86 1    
    46   23   24 2    
    47   23   25 1    
    48   25   26 1    
    49   25   27 1    
    50   25   87 1    
    51   26   88 1    
    52   26   89 1    
    53   26   90 1    
    54   27   28 am   BACKBONE|DICT|INTERRES
    55   27   91 1    
    56   28   29 2    
    57   28   30 1    
    58   30   31 1    
    59   30   32 1    
    60   30   92 1    
    61   31   93 1    
    62   31   94 1    
    63   31   95 1    
    64   32   33 am   BACKBONE|DICT|INTERRES
    65   32   96 1    
    66   33   34 2    
    67   33   35 1    
    68   35   36 1    
    69   35   37 1    
    70   35   97 1    
    71   36   98 1    
    72   36   99 1    
    73   36  100 1    
    74   37   38 am   BACKBONE|DICT|INTERRES
    75   37  101 1    
    76   38   39 2    
    77   38   40 1    
    78   40   41 1    
    79   40   42 1    
    80   40  102 1    
    81   41  103 1    
    82   41  104 1    
    83   41  105 1    
    84   42   43 am   BACKBONE|DICT|INTERRES
    85   42  106 1    
    86   43   44 2    
    87   43   45 1    
    88   45   46 1    
    89   45   49 1    
    90   45  107 1    
    91   46   47 1    
    92   46  108 1    
    93   46  109 1    
    94   47   48 1    
    95   48  110 1    
    96   48  111 1    
    97   49   50 am   BACKBONE|DICT|INTERRES
    98   49  112 1    
    99   50   51 2    
   100   50   52 1    
   101   52   53 1    
   102   52   54 1    
   103   52  113 1    
   104   53  114 1    
   105   53  115 1    
   106   53  116 1    
   107   54   55 am   BACKBONE|DICT|INTERRES
   108   54  117 1    
   109   55   56 2    
   110   55   57 1    
   111   57   58 1    
   112   57   59 1    
   113   57  118 1    
   114   58  119 1    
   115   58  120 1    
   116   58  121 1    
   117   59   60 am   BACKBONE|DICT|INTERRES
   118   59  122 1    
   119   60   61 2    
   120   60   62 1    
   121   62   63 1    
   122   62   64 1    
   123   62  123 1    
   124   63  124 1    
   125   63  125 1    
   126   63  126 1    
   127   64   65 am   BACKBONE|DICT|INTERRES
   128   64  127 1    
   129   65   66 2    
@<TRIPOS>SUBSTRUCTURE
     1 UNK         1 GROUP             0       ****    0 ROOT    
