@<TRIPOS>MOLECULE
3R135
127   129    1
SMALL
USER_CHARGES


@<TRIPOS>ATOM
      1 CA        -84.4657   24.9883  -70.4513 C.3       0 UNK        -0.1998 
      2 C         -84.1824   25.9429  -71.6014 C.2       0 UNK         0.4909 
      3 O         -85.0783   26.2241  -72.3980 O.2       0 UNK        -0.5240 
      4 N         -82.9430   26.4446  -71.6927 N.am      1 UNK        -0.4739 
      5 CA        -82.4839   27.3559  -72.7517 C.3       1 UNK         0.0864 
      6 C6        -81.1641   28.0596  -72.3462 C.3       11 UNK        -0.0881 
      7 S7        -81.0418   29.7588  -72.9952 S.3       11 UNK        -0.2682 
      8 C8        -79.7843   30.4673  -71.8837 C.3       11 UNK         0.0289 
      9 C9        -78.4056   29.8903  -72.1668 C.ar      11 UNK        -0.0687 
     10 C10       -77.9600   28.7540  -71.4843 C.ar      11 UNK        -0.0823 
     11 C11       -76.7147   28.1897  -71.7795 C.ar      11 UNK        -0.0830 
     12 C12       -75.8961   28.8031  -72.7330 C.ar      11 UNK        -0.1021 
     13 C13       -76.3172   29.9565  -73.4006 C.ar      11 UNK        -0.0753 
     14 C14       -77.5783   30.4892  -73.1209 C.ar      11 UNK        -0.0933 
     15 C15       -75.4238   30.6161  -74.4412 C.3       11 UNK         0.0166 
     16 S16       -74.6018   32.1071  -73.7946 S.3       11 UNK        -0.2615 
     17 C17       -73.3571   31.4043  -72.6565 C.3       11 UNK        -0.0865 
     18 CA        -71.9322   31.3886  -73.2663 C.3       10 UNK         0.0862 
     19 C         -70.8904   30.9343  -72.2102 C.2       10 UNK         0.5551 
     20 N         -70.1414   31.8635  -71.6329 N.am      10 UNK        -0.7319 
     21 O         -70.7943   29.7549  -71.8777 O.2       10 UNK        -0.5018 
     22 N         -71.8749   30.5523  -74.4715 N.am      10 UNK        -0.4509 
     23 C         -70.8968   30.5791  -75.3834 C.2       10 UNK         0.4899 
     24 O         -69.9446   31.3607  -75.3490 O.2       10 UNK        -0.4839 
     25 CA        -71.0297   29.5604  -76.5317 C.3       9 UNK         0.0222 
     26 CB        -69.7867   29.5035  -77.4455 C.3       9 UNK        -0.1966 
     27 N         -71.4001   28.2217  -76.0550 N.am      9 UNK        -0.4218 
     28 C         -70.6896   27.4225  -75.2391 C.2       9 UNK         0.5020 
     29 O         -69.5807   27.7120  -74.7878 O.2       9 UNK        -0.5274 
     30 CA        -71.3099   26.0658  -74.8457 C.3       8 UNK         0.0270 
     31 CB        -71.8165   26.1183  -73.3945 C.3       8 UNK        -0.1976 
     32 N         -72.4012   25.6375  -75.7271 N.am      8 UNK        -0.4313 
     33 C         -72.2394   25.2631  -77.0067 C.2       8 UNK         0.5041 
     34 O         -71.1346   25.1216  -77.5328 O.2       8 UNK        -0.5577 
     35 CA        -73.4995   25.0340  -77.8676 C.3       7 UNK         0.0284 
     36 CB        -73.7440   23.5282  -78.0604 C.3       7 UNK        -0.1958 
     37 N         -74.7285   25.6518  -77.3596 N.am      7 UNK        -0.4454 
     38 C         -74.9117   26.9457  -77.0602 C.2       7 UNK         0.5089 
     39 O         -74.0604   27.8200  -77.2282 O.2       7 UNK        -0.5125 
     40 CA        -76.2402   27.3093  -76.3738 C.3       6 UNK         0.0408 
     41 CB        -77.3035   27.6820  -77.4156 C.3       6 UNK        -0.1791 
     42 N         -76.7606   26.2664  -75.4798 N.am      6 UNK        -0.4762 
     43 C         -76.0928   25.7188  -74.4494 C.2       6 UNK         0.5007 
     44 O         -74.9203   25.9745  -74.1757 O.2       6 UNK        -0.5032 
     45 CA        -76.8592   24.6783  -73.6164 C.3       5 UNK         0.0783 
     46 C46       -77.9544   25.3481  -72.7412 C.3       11 UNK        -0.0857 
     47 S47       -77.4639   25.5808  -70.9994 S.3       11 UNK        -0.2512 
     48 C48       -76.2315   26.9300  -71.0666 C.3       11 UNK         0.0225 
     49 N         -77.4095   23.6650  -74.5170 N.am      5 UNK        -0.4615 
     50 C         -76.6965   22.6657  -75.0562 C.2       4 UNK         0.5053 
     51 O         -75.5370   22.4052  -74.7367 O.2       4 UNK        -0.5105 
     52 CA        -77.3767   21.8203  -76.1499 C.3       4 UNK         0.0263 
     53 CB        -77.9818   20.5446  -75.5423 C.3       4 UNK        -0.1981 
     54 N         -78.4174   22.5436  -76.8853 N.am      4 UNK        -0.4224 
     55 C         -78.2044   23.6093  -77.6715 C.2       3 UNK         0.4895 
     56 O         -77.0887   24.0599  -77.9265 O.2       3 UNK        -0.5091 
     57 CA        -79.4517   24.3299  -78.2157 C.3       3 UNK         0.0250 
     58 CB        -79.8450   23.7596  -79.5873 C.3       3 UNK        -0.1996 
     59 N         -80.6073   24.2774  -77.3113 N.am      3 UNK        -0.4254 
     60 C         -80.6262   24.7485  -76.0559 C.2       2 UNK         0.5004 
     61 O         -79.6585   25.2883  -75.5112 O.2       2 UNK        -0.5226 
     62 CA        -81.9124   24.4760  -75.2596 C.3       2 UNK         0.0269 
     63 CB        -81.9385   23.0133  -74.7826 C.3       2 UNK        -0.1926 
     64 N         -82.0463   25.3426  -74.0889 N.am      2 UNK        -0.4687 
     65 C         -82.3554   26.6468  -74.1203 C.2       1 UNK         0.5165 
     66 O         -82.5732   27.2715  -75.1599 O.2       1 UNK        -0.5079 
     67 H67       -84.7792   24.0188  -70.8375 H         1 UNK         0.0900 
     68 H68       -85.2670   25.3816  -69.8263 H         1 UNK         0.0900 
     69 H69       -83.5892   24.8353  -69.8219 H         1 UNK         0.0900 
     70 H70       -82.2528   26.1832  -71.0027 H         1 UNK         0.2959 
     71 H71       -83.2611   28.1159  -72.8644 H         1 UNK         0.1079 
     72 H72       -80.2888   27.4871  -72.6572 H         1 UNK         0.0837 
     73 H73       -81.1008   28.1305  -71.2591 H         1 UNK         0.0837 
     74 H74       -79.7663   31.5499  -72.0184 H         1 UNK         0.0685 
     75 H75       -80.0670   30.2964  -70.8438 H         1 UNK         0.0685 
     76 H76       -78.5936   28.2915  -70.7403 H         1 UNK         0.1434 
     77 H77       -74.9284   28.3776  -72.9613 H         1 UNK         0.1329 
     78 H78       -77.9158   31.3712  -73.6480 H         1 UNK         0.1335 
     79 H79       -76.0266   30.8963  -75.3063 H         1 UNK         0.0680 
     80 H80       -74.6740   29.9158  -74.8109 H         1 UNK         0.0680 
     81 H81       -73.6531   30.4044  -72.3380 H         1 UNK         0.1032 
     82 H82       -73.3696   32.0157  -71.7520 H         1 UNK         0.1032 
     83 H83       -71.6901   32.4105  -73.5669 H         1 UNK         0.0461 
     84 H84       -70.2209   32.8339  -71.8950 H         1 UNK         0.3453 
     85 H85       -69.4718   31.5874  -70.9317 H         1 UNK         0.3453 
     86 H86       -72.5955   29.8544  -74.5629 H         1 UNK         0.2984 
     87 H87       -71.8663   29.9017  -77.1432 H         1 UNK         0.0554 
     88 H88       -69.9219   28.7854  -78.2543 H         1 UNK         0.0847 
     89 H89       -68.8884   29.2233  -76.8947 H         1 UNK         0.0847 
     90 H90       -69.5951   30.4746  -77.9036 H         1 UNK         0.0847 
     91 H91       -72.3055   27.8908  -76.3801 H         1 UNK         0.3141 
     92 H92       -70.5187   25.3154  -74.9031 H         1 UNK         0.0743 
     93 H93       -72.5752   26.8903  -73.2600 H         1 UNK         0.0784 
     94 H94       -72.2475   25.1655  -73.0864 H         1 UNK         0.0784 
     95 H95       -71.0017   26.3451  -72.7055 H         1 UNK         0.0784 
     96 H96       -73.3423   25.7153  -75.3493 H         1 UNK         0.3213 
     97 H97       -73.2998   25.4775  -78.8450 H         1 UNK         0.0855 
     98 H98       -74.0043   23.0404  -77.1201 H         1 UNK         0.0814 
     99 H99       -72.8548   23.0318  -78.4516 H         1 UNK         0.0814 
    100 H100      -74.5522   23.3441  -78.7685 H         1 UNK         0.0814 
    101 H101      -75.5287   25.0335  -77.2537 H         1 UNK         0.3105 
    102 H102      -76.0583   28.1861  -75.7538 H         1 UNK         0.0547 
    103 H103      -76.9921   28.5563  -77.9886 H         1 UNK         0.0837 
    104 H104      -77.4672   26.8736  -78.1271 H         1 UNK         0.0837 
    105 H105      -78.2582   27.9235  -76.9476 H         1 UNK         0.0837 
    106 H106      -77.7259   25.9846  -75.6217 H         1 UNK         0.3020 
    107 H107      -76.1360   24.1852  -72.9622 H         1 UNK         0.1245 
    108 H108      -78.8447   24.7176  -72.7138 H         1 UNK         0.0781 
    109 H109      -78.3022   26.2964  -73.1550 H         1 UNK         0.0781 
    110 H110      -75.3238   26.5455  -71.5339 H         1 UNK         0.0836 
    111 H111      -75.9539   27.1961  -70.0460 H         1 UNK         0.0836 
    112 H112      -78.3369   23.8577  -74.8757 H         1 UNK         0.3022 
    113 H113      -76.6041   21.5292  -76.8649 H         1 UNK         0.0747 
    114 H114      -78.3950   19.8943  -76.3136 H         1 UNK         0.0793 
    115 H115      -77.2234   19.9694  -75.0090 H         1 UNK         0.0793 
    116 H116      -78.7772   20.7727  -74.8315 H         1 UNK         0.0793 
    117 H117      -79.3690   22.2387  -76.7445 H         1 UNK         0.3047 
    118 H118      -79.1935   25.3811  -78.3474 H         1 UNK         0.0822 
    119 H119      -80.6667   24.3221  -80.0311 H         1 UNK         0.0807 
    120 H120      -80.1497   22.7144  -79.5201 H         1 UNK         0.0807 
    121 H121      -79.0075   23.8104  -80.2849 H         1 UNK         0.0807 
    122 H122      -81.4398   23.8360  -77.6759 H         1 UNK         0.2946 
    123 H123      -82.7679   24.6540  -75.9155 H         1 UNK         0.1144 
    124 H124      -81.0921   22.7844  -74.1332 H         1 UNK         0.0793 
    125 H125      -81.9017   22.3196  -75.6235 H         1 UNK         0.0793 
    126 H126      -82.8524   22.7936  -74.2299 H         1 UNK         0.0793 
    127 H127      -81.8775   24.9186  -73.1892 H         1 UNK         0.2896 
@<TRIPOS>BOND
     1    1    2 1    
     2    1   67 1    
     3    1   68 1    
     4    1   69 1    
     5    2    3 2    
     6    2    4 am   BACKBONE|DICT|INTERRES
     7    4    5 1    
     8    4   70 1    
     9    5    6 1    
    10    5   65 1    
    11    5   71 1    
    12    6    7 1    
    13    6   72 1    
    14    6   73 1    
    15    7    8 1    
    16    8    9 1    
    17    8   74 1    
    18    8   75 1    
    19    9   10 ar   
    20    9   14 ar   
    21   10   11 ar   
    22   10   76 1    
    23   11   12 ar   
    24   11   48 1    
    25   12   13 ar   
    26   12   77 1    
    27   13   14 ar   
    28   13   15 1    
    29   14   78 1    
    30   15   16 1    
    31   15   79 1    
    32   15   80 1    
    33   16   17 1    
    34   17   18 1    
    35   17   81 1    
    36   17   82 1    
    37   18   19 1    
    38   18   22 1    
    39   18   83 1    
    40   19   20 am   BACKBONE|DICT|INTERRES
    41   19   21 2    
    42   20   84 1    
    43   20   85 1    
    44   22   23 am   BACKBONE|DICT|INTERRES
    45   22   86 1    
    46   23   24 2    
    47   23   25 1    
    48   25   26 1    
    49   25   27 1    
    50   25   87 1    
    51   26   88 1    
    52   26   89 1    
    53   26   90 1    
    54   27   28 am   BACKBONE|DICT|INTERRES
    55   27   91 1    
    56   28   29 2    
    57   28   30 1    
    58   30   31 1    
    59   30   32 1    
    60   30   92 1    
    61   31   93 1    
    62   31   94 1    
    63   31   95 1    
    64   32   33 am   BACKBONE|DICT|INTERRES
    65   32   96 1    
    66   33   34 2    
    67   33   35 1    
    68   35   36 1    
    69   35   37 1    
    70   35   97 1    
    71   36   98 1    
    72   36   99 1    
    73   36  100 1    
    74   37   38 am   BACKBONE|DICT|INTERRES
    75   37  101 1    
    76   38   39 2    
    77   38   40 1    
    78   40   41 1    
    79   40   42 1    
    80   40  102 1    
    81   41  103 1    
    82   41  104 1    
    83   41  105 1    
    84   42   43 am   BACKBONE|DICT|INTERRES
    85   42  106 1    
    86   43   44 2    
    87   43   45 1    
    88   45   46 1    
    89   45   49 1    
    90   45  107 1    
    91   46   47 1    
    92   46  108 1    
    93   46  109 1    
    94   47   48 1    
    95   48  110 1    
    96   48  111 1    
    97   49   50 am   BACKBONE|DICT|INTERRES
    98   49  112 1    
    99   50   51 2    
   100   50   52 1    
   101   52   53 1    
   102   52   54 1    
   103   52  113 1    
   104   53  114 1    
   105   53  115 1    
   106   53  116 1    
   107   54   55 am   BACKBONE|DICT|INTERRES
   108   54  117 1    
   109   55   56 2    
   110   55   57 1    
   111   57   58 1    
   112   57   59 1    
   113   57  118 1    
   114   58  119 1    
   115   58  120 1    
   116   58  121 1    
   117   59   60 am   BACKBONE|DICT|INTERRES
   118   59  122 1    
   119   60   61 2    
   120   60   62 1    
   121   62   63 1    
   122   62   64 1    
   123   62  123 1    
   124   63  124 1    
   125   63  125 1    
   126   63  126 1    
   127   64   65 am   BACKBONE|DICT|INTERRES
   128   64  127 1    
   129   65   66 2    
@<TRIPOS>SUBSTRUCTURE
     1 UNK         1 GROUP             0       ****    0 ROOT    
