@<TRIPOS>MOLECULE
3R135
127   129    1
SMALL
USER_CHARGES


@<TRIPOS>ATOM
      1 CA        -83.1330   22.1884  -73.2748 C.3       0 UNK        -0.1998 
      2 C         -82.2082   23.3875  -73.1366 C.2       0 UNK         0.4909 
      3 O         -81.0120   23.2677  -73.4018 O.2       0 UNK        -0.5240 
      4 N         -82.7555   24.5468  -72.7409 N.am      1 UNK        -0.4739 
      5 CA        -82.0365   25.8129  -72.5328 C.3       1 UNK         0.0864 
      6 C6        -81.0864   25.7417  -71.3070 C.3       11 UNK        -0.0881 
      7 S7        -80.7954   27.3674  -70.5317 S.3       11 UNK        -0.2682 
      8 C8        -78.9983   27.3163  -70.1894 C.3       11 UNK         0.0289 
      9 C9        -78.1008   28.1459  -71.1135 C.ar      11 UNK        -0.0687 
     10 C10       -78.5972   28.9907  -72.1177 C.ar      11 UNK        -0.0823 
     11 C11       -77.7320   29.7858  -72.8783 C.ar      11 UNK        -0.0830 
     12 C12       -76.3569   29.7246  -72.6409 C.ar      11 UNK        -0.1021 
     13 C13       -75.8445   28.8790  -71.6554 C.ar      11 UNK        -0.0753 
     14 C14       -76.7188   28.0931  -70.9000 C.ar      11 UNK        -0.0933 
     15 C15       -74.3486   28.8456  -71.3906 C.3       11 UNK         0.0166 
     16 S16       -73.8713   30.2214  -70.3018 S.3       11 UNK        -0.2615 
     17 C17       -72.0504   30.1157  -70.3295 C.3       11 UNK        -0.0865 
     18 CA        -71.4187   31.1975  -71.2559 C.3       10 UNK         0.0862 
     19 C         -69.9032   31.4435  -70.9689 C.2       10 UNK         0.5551 
     20 N         -69.1082   31.8567  -71.9487 N.am      10 UNK        -0.7319 
     21 O         -69.4443   31.2947  -69.8387 O.2       10 UNK        -0.5018 
     22 N         -71.7585   30.9917  -72.6787 N.am      10 UNK        -0.4509 
     23 C         -71.3344   29.9774  -73.4445 C.2       10 UNK         0.4899 
     24 O         -70.5720   29.0904  -73.0522 O.2       10 UNK        -0.4839 
     25 CA        -71.8253   29.9793  -74.9036 C.3       9 UNK         0.0222 
     26 CB        -71.0877   31.0521  -75.7234 C.3       9 UNK        -0.1966 
     27 N         -71.6030   28.6739  -75.5278 N.am      9 UNK        -0.4218 
     28 C         -72.3851   27.6026  -75.3499 C.2       9 UNK         0.5020 
     29 O         -73.4620   27.6255  -74.7537 O.2       9 UNK        -0.5274 
     30 CA        -71.8214   26.2749  -75.8680 C.3       8 UNK         0.0270 
     31 CB        -71.0554   25.5454  -74.7470 C.3       8 UNK        -0.1976 
     32 N         -72.8863   25.4172  -76.3878 N.am      8 UNK        -0.4313 
     33 C         -72.6858   24.4390  -77.2821 C.2       8 UNK         0.5041 
     34 O         -71.5807   24.1635  -77.7538 O.2       8 UNK        -0.5577 
     35 CA        -73.9055   23.6247  -77.7448 C.3       7 UNK         0.0284 
     36 CB        -74.2737   22.5468  -76.7122 C.3       7 UNK        -0.1958 
     37 N         -75.0711   24.4560  -78.0457 N.am      7 UNK        -0.4454 
     38 C         -75.1581   25.2898  -79.0921 C.2       7 UNK         0.5089 
     39 O         -74.2735   25.4245  -79.9384 O.2       7 UNK        -0.5125 
     40 CA        -76.4501   26.1147  -79.2241 C.3       6 UNK         0.0408 
     41 CB        -77.5244   25.3219  -79.9847 C.3       6 UNK        -0.1791 
     42 N         -76.9827   26.5449  -77.9311 N.am      6 UNK        -0.4762 
     43 C         -76.3897   27.4350  -77.1218 C.2       6 UNK         0.5007 
     44 O         -75.3661   28.0504  -77.4217 O.2       6 UNK        -0.5032 
     45 CA        -77.0463   27.6559  -75.7429 C.3       5 UNK         0.0783 
     46 C46       -78.2185   28.6680  -75.8388 C.3       11 UNK        -0.0857 
     47 S47       -77.6569   30.3840  -75.6070 S.3       11 UNK        -0.2512 
     48 C48       -78.2855   30.7385  -73.9324 C.3       11 UNK         0.0225 
     49 N         -77.4690   26.4019  -75.1101 N.am      5 UNK        -0.4615 
     50 C         -76.6630   25.3736  -74.8081 C.2       4 UNK         0.5053 
     51 O         -75.4514   25.3579  -75.0126 O.2       4 UNK        -0.5105 
     52 CA        -77.3361   24.1168  -74.2350 C.3       4 UNK         0.0263 
     53 CB        -77.6255   24.3001  -72.7381 C.3       4 UNK        -0.1981 
     54 N         -78.5653   23.7779  -74.9585 N.am      4 UNK        -0.4224 
     55 C         -78.5971   23.4336  -76.2559 C.2       3 UNK         0.4895 
     56 O         -77.5911   23.2766  -76.9475 O.2       3 UNK        -0.5091 
     57 CA        -79.9795   23.3038  -76.9131 C.3       3 UNK         0.0250 
     58 CB        -80.6149   21.9364  -76.6147 C.3       3 UNK        -0.1996 
     59 N         -80.8809   24.3857  -76.5097 N.am      3 UNK        -0.4254 
     60 C         -80.7173   25.6695  -76.8636 C.2       2 UNK         0.5004 
     61 O         -79.8217   26.0630  -77.6093 O.2       2 UNK        -0.5226 
     62 CA        -81.6952   26.6956  -76.2664 C.3       2 UNK         0.0269 
     63 CB        -82.9113   26.8790  -77.1876 C.3       2 UNK        -0.1926 
     64 N         -82.1518   26.3495  -74.9172 N.am      2 UNK        -0.4687 
     65 C         -81.3574   26.2889  -73.8379 C.2       1 UNK         0.5165 
     66 O         -80.1495   26.5265  -73.8763 O.2       1 UNK        -0.5079 
     67 H67       -84.1568   22.4267  -72.9872 H         1 UNK         0.0900 
     68 H68       -83.1420   21.8381  -74.3065 H         1 UNK         0.0900 
     69 H69       -82.7838   21.3734  -72.6416 H         1 UNK         0.0900 
     70 H70       -83.7481   24.5789  -72.5511 H         1 UNK         0.2959 
     71 H71       -82.8077   26.5529  -72.3115 H         1 UNK         0.1079 
     72 H72       -80.1508   25.2497  -71.5656 H         1 UNK         0.0837 
     73 H73       -81.5325   25.1145  -70.5336 H         1 UNK         0.0837 
     74 H74       -78.8553   27.6852  -69.1728 H         1 UNK         0.0685 
     75 H75       -78.6511   26.2824  -70.1804 H         1 UNK         0.0685 
     76 H76       -79.6593   29.0509  -72.3041 H         1 UNK         0.1434 
     77 H77       -75.6838   30.3430  -73.2192 H         1 UNK         0.1329 
     78 H78       -76.3218   27.4547  -70.1224 H         1 UNK         0.1335 
     79 H79       -73.8105   28.9139  -72.3358 H         1 UNK         0.0680 
     80 H80       -74.0578   27.8980  -70.9346 H         1 UNK         0.0680 
     81 H81       -71.7290   29.1129  -70.6149 H         1 UNK         0.1032 
     82 H82       -71.7207   30.2490  -69.2977 H         1 UNK         0.1032 
     83 H83       -71.8814   32.1489  -70.9910 H         1 UNK         0.0461 
     84 H84       -69.4726   31.9936  -72.8773 H         1 UNK         0.3453 
     85 H85       -68.1333   32.0254  -71.7567 H         1 UNK         0.3453 
     86 H86       -72.3641   31.6903  -73.0851 H         1 UNK         0.2984 
     87 H87       -72.8948   30.2019  -74.9119 H         1 UNK         0.0554 
     88 H88       -71.2698   32.0505  -75.3240 H         1 UNK         0.0847 
     89 H89       -71.4239   31.0580  -76.7606 H         1 UNK         0.0847 
     90 H90       -70.0085   30.8928  -75.7222 H         1 UNK         0.0847 
     91 H91       -70.7085   28.5445  -75.9780 H         1 UNK         0.3141 
     92 H92       -71.1284   26.5001  -76.6819 H         1 UNK         0.0743 
     93 H93       -71.7214   25.2585  -73.9321 H         1 UNK         0.0784 
     94 H94       -70.5679   24.6429  -75.1157 H         1 UNK         0.0784 
     95 H95       -70.2779   26.1830  -74.3234 H         1 UNK         0.0784 
     96 H96       -73.8187   25.5874  -76.0085 H         1 UNK         0.3213 
     97 H97       -73.6239   23.1120  -78.6673 H         1 UNK         0.0855 
     98 H98       -74.5656   22.9806  -75.7564 H         1 UNK         0.0814 
     99 H99       -73.4271   21.8857  -76.5228 H         1 UNK         0.0814 
    100 H100      -75.0980   21.9257  -77.0634 H         1 UNK         0.0814 
    101 H101      -75.8701   24.3688  -77.4263 H         1 UNK         0.3105 
    102 H102      -76.2163   27.0096  -79.8046 H         1 UNK         0.0547 
    103 H103      -77.1607   25.0131  -80.9654 H         1 UNK         0.0837 
    104 H104      -77.8184   24.4204  -79.4464 H         1 UNK         0.0837 
    105 H105      -78.4206   25.9216  -80.1446 H         1 UNK         0.0837 
    106 H106      -77.8728   26.1441  -77.6458 H         1 UNK         0.3020 
    107 H107      -76.2718   28.0628  -75.0876 H         1 UNK         0.1245 
    108 H108      -78.9704   28.4595  -75.0788 H         1 UNK         0.0781 
    109 H109      -78.7505   28.5916  -76.7893 H         1 UNK         0.0781 
    110 H110      -79.3762   30.7085  -73.9514 H         1 UNK         0.0836 
    111 H111      -78.0136   31.7601  -73.6634 H         1 UNK         0.0836 
    112 H112      -78.4474   26.3382  -74.8440 H         1 UNK         0.3022 
    113 H113      -76.6476   23.2770  -74.3484 H         1 UNK         0.0747 
    114 H114      -78.2111   23.4740  -72.3343 H         1 UNK         0.0793 
    115 H115      -76.6957   24.3532  -72.1706 H         1 UNK         0.0793 
    116 H116      -78.1652   25.2272  -72.5496 H         1 UNK         0.0793 
    117 H117      -79.4399   23.8409  -74.4434 H         1 UNK         0.3047 
    118 H118      -79.8374   23.3765  -77.9938 H         1 UNK         0.0822 
    119 H119      -81.5823   21.8314  -77.1060 H         1 UNK         0.0807 
    120 H120      -80.7599   21.7749  -75.5469 H         1 UNK         0.0807 
    121 H121      -79.9785   21.1286  -76.9784 H         1 UNK         0.0807 
    122 H122      -81.6189   24.1539  -75.8617 H         1 UNK         0.2946 
    123 H123      -81.1657   27.6490  -76.2057 H         1 UNK         0.1144 
    124 H124      -82.5981   27.1588  -78.1946 H         1 UNK         0.0793 
    125 H125      -83.5691   27.6689  -76.8245 H         1 UNK         0.0793 
    126 H126      -83.4982   25.9635  -77.2715 H         1 UNK         0.0793 
    127 H127      -83.1288   26.1159  -74.8113 H         1 UNK         0.2896 
@<TRIPOS>BOND
     1    1    2 1    
     2    1   67 1    
     3    1   68 1    
     4    1   69 1    
     5    2    3 2    
     6    2    4 am   BACKBONE|DICT|INTERRES
     7    4    5 1    
     8    4   70 1    
     9    5    6 1    
    10    5   65 1    
    11    5   71 1    
    12    6    7 1    
    13    6   72 1    
    14    6   73 1    
    15    7    8 1    
    16    8    9 1    
    17    8   74 1    
    18    8   75 1    
    19    9   10 ar   
    20    9   14 ar   
    21   10   11 ar   
    22   10   76 1    
    23   11   12 ar   
    24   11   48 1    
    25   12   13 ar   
    26   12   77 1    
    27   13   14 ar   
    28   13   15 1    
    29   14   78 1    
    30   15   16 1    
    31   15   79 1    
    32   15   80 1    
    33   16   17 1    
    34   17   18 1    
    35   17   81 1    
    36   17   82 1    
    37   18   19 1    
    38   18   22 1    
    39   18   83 1    
    40   19   20 am   BACKBONE|DICT|INTERRES
    41   19   21 2    
    42   20   84 1    
    43   20   85 1    
    44   22   23 am   BACKBONE|DICT|INTERRES
    45   22   86 1    
    46   23   24 2    
    47   23   25 1    
    48   25   26 1    
    49   25   27 1    
    50   25   87 1    
    51   26   88 1    
    52   26   89 1    
    53   26   90 1    
    54   27   28 am   BACKBONE|DICT|INTERRES
    55   27   91 1    
    56   28   29 2    
    57   28   30 1    
    58   30   31 1    
    59   30   32 1    
    60   30   92 1    
    61   31   93 1    
    62   31   94 1    
    63   31   95 1    
    64   32   33 am   BACKBONE|DICT|INTERRES
    65   32   96 1    
    66   33   34 2    
    67   33   35 1    
    68   35   36 1    
    69   35   37 1    
    70   35   97 1    
    71   36   98 1    
    72   36   99 1    
    73   36  100 1    
    74   37   38 am   BACKBONE|DICT|INTERRES
    75   37  101 1    
    76   38   39 2    
    77   38   40 1    
    78   40   41 1    
    79   40   42 1    
    80   40  102 1    
    81   41  103 1    
    82   41  104 1    
    83   41  105 1    
    84   42   43 am   BACKBONE|DICT|INTERRES
    85   42  106 1    
    86   43   44 2    
    87   43   45 1    
    88   45   46 1    
    89   45   49 1    
    90   45  107 1    
    91   46   47 1    
    92   46  108 1    
    93   46  109 1    
    94   47   48 1    
    95   48  110 1    
    96   48  111 1    
    97   49   50 am   BACKBONE|DICT|INTERRES
    98   49  112 1    
    99   50   51 2    
   100   50   52 1    
   101   52   53 1    
   102   52   54 1    
   103   52  113 1    
   104   53  114 1    
   105   53  115 1    
   106   53  116 1    
   107   54   55 am   BACKBONE|DICT|INTERRES
   108   54  117 1    
   109   55   56 2    
   110   55   57 1    
   111   57   58 1    
   112   57   59 1    
   113   57  118 1    
   114   58  119 1    
   115   58  120 1    
   116   58  121 1    
   117   59   60 am   BACKBONE|DICT|INTERRES
   118   59  122 1    
   119   60   61 2    
   120   60   62 1    
   121   62   63 1    
   122   62   64 1    
   123   62  123 1    
   124   63  124 1    
   125   63  125 1    
   126   63  126 1    
   127   64   65 am   BACKBONE|DICT|INTERRES
   128   64  127 1    
   129   65   66 2    
@<TRIPOS>SUBSTRUCTURE
     1 UNK         1 GROUP             0       ****    0 ROOT    
