@<TRIPOS>MOLECULE
3R135
127   129    1
SMALL
USER_CHARGES


@<TRIPOS>ATOM
      1 CA        -83.3496   25.6883  -72.0265 C.3       0 UNK        -0.1998 
      2 C         -81.8792   25.5456  -71.6451 C.2       0 UNK         0.4909 
      3 O         -81.5499   24.7010  -70.8152 O.2       0 UNK        -0.5240 
      4 N         -80.9601   26.3275  -72.2216 N.am      1 UNK        -0.4739 
      5 CA        -81.1590   27.3664  -73.2319 C.3       1 UNK         0.0864 
      6 C6        -81.6404   28.7212  -72.6273 C.3       11 UNK        -0.0881 
      7 S7        -80.3777   29.8241  -71.8981 S.3       11 UNK        -0.2682 
      8 C8        -80.0183   29.0429  -70.2922 C.3       11 UNK         0.0289 
      9 C9        -78.6064   28.4756  -70.2734 C.ar      11 UNK        -0.0687 
     10 C10       -78.3864   27.0973  -70.1895 C.ar      11 UNK        -0.0823 
     11 C11       -77.0859   26.5832  -70.2178 C.ar      11 UNK        -0.0830 
     12 C12       -76.0002   27.4597  -70.3009 C.ar      11 UNK        -0.1021 
     13 C13       -76.2078   28.8403  -70.3585 C.ar      11 UNK        -0.0753 
     14 C14       -77.5112   29.3418  -70.3436 C.ar      11 UNK        -0.0933 
     15 C15       -75.0227   29.7884  -70.4365 C.3       11 UNK         0.0166 
     16 S16       -74.2953   29.8111  -72.1004 S.3       11 UNK        -0.2615 
     17 C17       -75.5969   30.6585  -73.0647 C.3       11 UNK        -0.0865 
     18 CA        -75.1388   31.0254  -74.5003 C.3       10 UNK         0.0862 
     19 C         -74.0845   32.1746  -74.4965 C.2       10 UNK         0.5551 
     20 N         -72.8287   31.9328  -74.8586 N.am      10 UNK        -0.7319 
     21 O         -74.4207   33.3092  -74.1663 O.2       10 UNK        -0.5018 
     22 N         -74.7429   29.8236  -75.2464 N.am      10 UNK        -0.4509 
     23 C         -74.5436   29.7604  -76.5682 C.2       10 UNK         0.4899 
     24 O         -74.8341   30.6714  -77.3448 O.2       10 UNK        -0.4839 
     25 CA        -73.9017   28.4677  -77.1103 C.3       9 UNK         0.0222 
     26 CB        -73.0244   28.7249  -78.3533 C.3       9 UNK        -0.1966 
     27 N         -73.1593   27.6996  -76.1009 N.am      9 UNK        -0.4218 
     28 C         -72.0703   28.0769  -75.4106 C.2       9 UNK         0.5020 
     29 O         -71.5608   29.1959  -75.4886 O.2       9 UNK        -0.5274 
     30 CA        -71.4495   27.0317  -74.4676 C.3       8 UNK         0.0270 
     31 CB        -72.0635   27.1347  -73.0626 C.3       8 UNK        -0.1976 
     32 N         -71.6450   25.6730  -74.9772 N.am      8 UNK        -0.4313 
     33 C         -70.7463   24.9893  -75.6993 C.2       8 UNK         0.5041 
     34 O         -69.6021   25.3844  -75.9274 O.2       8 UNK        -0.5577 
     35 CA        -71.2030   23.6368  -76.2801 C.3       7 UNK         0.0284 
     36 CB        -70.9125   22.4977  -75.2895 C.3       7 UNK        -0.1958 
     37 N         -72.6243   23.6216  -76.6373 N.am      7 UNK        -0.4454 
     38 C         -73.1684   24.3504  -77.6223 C.2       7 UNK         0.5089 
     39 O         -72.5101   25.0185  -78.4188 O.2       7 UNK        -0.5125 
     40 CA        -74.7048   24.3643  -77.7280 C.3       6 UNK         0.0408 
     41 CB        -75.1706   23.4669  -78.8849 C.3       6 UNK        -0.1791 
     42 N         -75.4257   23.9803  -76.5080 N.am      6 UNK        -0.4762 
     43 C         -75.3647   24.5883  -75.3136 C.2       6 UNK         0.5007 
     44 O         -74.5637   25.4888  -75.0549 O.2       6 UNK        -0.5032 
     45 CA        -76.3666   24.1005  -74.2456 C.3       5 UNK         0.0783 
     46 C46       -76.2928   24.9127  -72.9261 C.3       11 UNK        -0.0857 
     47 S47       -77.4234   24.2365  -71.6605 S.3       11 UNK        -0.2512 
     48 C48       -76.8531   25.0811  -70.1529 C.3       11 UNK         0.0225 
     49 N         -77.7227   24.1039  -74.7993 N.am      5 UNK        -0.4615 
     50 C         -78.2854   23.1129  -75.4988 C.2       4 UNK         0.5053 
     51 O         -77.7017   22.0698  -75.7935 O.2       4 UNK        -0.5105 
     52 CA        -79.7177   23.3538  -75.9916 C.3       4 UNK         0.0263 
     53 CB        -80.7202   23.2968  -74.8261 C.3       4 UNK        -0.1981 
     54 N         -79.8236   24.6428  -76.6758 N.am      4 UNK        -0.4224 
     55 C         -79.4399   24.8644  -77.9414 C.2       3 UNK         0.4895 
     56 O         -79.0010   23.9887  -78.6873 O.2       3 UNK        -0.5091 
     57 CA        -79.5847   26.2994  -78.4791 C.3       3 UNK         0.0250 
     58 CB        -80.9151   26.4570  -79.2334 C.3       3 UNK        -0.1996 
     59 N         -79.5034   27.3170  -77.4282 N.am      3 UNK        -0.4254 
     60 C         -78.3615   27.7097  -76.8464 C.2       2 UNK         0.5004 
     61 O         -77.2499   27.2933  -77.1667 O.2       2 UNK        -0.5226 
     62 CA        -78.4892   28.7180  -75.6913 C.3       2 UNK         0.0269 
     63 CB        -78.4874   30.1591  -76.2244 C.3       2 UNK        -0.1926 
     64 N         -79.6789   28.5105  -74.8551 N.am      2 UNK        -0.4687 
     65 C         -79.8917   27.4159  -74.1118 C.2       1 UNK         0.5165 
     66 O         -79.1369   26.4411  -74.1319 O.2       1 UNK        -0.5079 
     67 H67       -83.9604   24.9969  -71.4463 H         1 UNK         0.0900 
     68 H68       -83.7184   26.6932  -71.8301 H         1 UNK         0.0900 
     69 H69       -83.5013   25.4547  -73.0798 H         1 UNK         0.0900 
     70 H70       -79.9813   26.1416  -72.0426 H         1 UNK         0.2959 
     71 H71       -81.9379   27.0191  -73.9127 H         1 UNK         0.1079 
     72 H72       -82.4149   28.5574  -71.8785 H         1 UNK         0.0837 
     73 H73       -82.1360   29.2967  -73.4107 H         1 UNK         0.0837 
     74 H74       -80.7565   28.2716  -70.0686 H         1 UNK         0.0685 
     75 H75       -80.1118   29.7935  -69.5062 H         1 UNK         0.0685 
     76 H76       -79.2236   26.4180  -70.1109 H         1 UNK         0.1434 
     77 H77       -74.9910   27.0715  -70.3243 H         1 UNK         0.1329 
     78 H78       -77.6782   30.4088  -70.4018 H         1 UNK         0.1335 
     79 H79       -74.2598   29.4725  -69.7235 H         1 UNK         0.0680 
     80 H80       -75.3099   30.8010  -70.1486 H         1 UNK         0.0680 
     81 H81       -75.9249   31.5498  -72.5262 H         1 UNK         0.1032 
     82 H82       -76.4696   30.0050  -73.1135 H         1 UNK         0.1032 
     83 H83       -76.0097   31.4348  -75.0148 H         1 UNK         0.0461 
     84 H84       -72.5319   30.9969  -75.1111 H         1 UNK         0.3453 
     85 H85       -72.1605   32.6864  -74.8544 H         1 UNK         0.3453 
     86 H86       -74.4550   29.0385  -74.6813 H         1 UNK         0.2984 
     87 H87       -74.7255   27.8270  -77.4218 H         1 UNK         0.0554 
     88 H88       -73.6111   29.1556  -79.1655 H         1 UNK         0.0847 
     89 H89       -72.5874   27.7995  -78.7285 H         1 UNK         0.0847 
     90 H90       -72.2103   29.4175  -78.1377 H         1 UNK         0.0847 
     91 H91       -73.5720   26.7999  -75.8649 H         1 UNK         0.3141 
     92 H92       -70.3824   27.2489  -74.3858 H         1 UNK         0.0743 
     93 H93       -71.6259   26.4023  -72.3842 H         1 UNK         0.0784 
     94 H94       -71.8796   28.1202  -72.6334 H         1 UNK         0.0784 
     95 H95       -73.1430   26.9767  -73.0750 H         1 UNK         0.0784 
     96 H96       -72.5770   25.2867  -74.8718 H         1 UNK         0.3213 
     97 H97       -70.6249   23.4564  -77.1892 H         1 UNK         0.0855 
     98 H98       -71.4759   22.6120  -74.3625 H         1 UNK         0.0814 
     99 H99       -69.8541   22.4727  -75.0258 H         1 UNK         0.0814 
    100 H100      -71.1603   21.5261  -75.7173 H         1 UNK         0.0814 
    101 H101      -73.2436   23.0817  -76.0508 H         1 UNK         0.3105 
    102 H102      -74.9975   25.3904  -77.9591 H         1 UNK         0.0547 
    103 H103      -74.9439   22.4167  -78.6976 H         1 UNK         0.0837 
    104 H104      -74.6805   23.7454  -79.8190 H         1 UNK         0.0837 
    105 H105      -76.2449   23.5555  -79.0480 H         1 UNK         0.0837 
    106 H106      -76.1113   23.2397  -76.6072 H         1 UNK         0.3020 
    107 H107      -76.0851   23.0717  -74.0092 H         1 UNK         0.1245 
    108 H108      -76.5477   25.9603  -73.1006 H         1 UNK         0.0781 
    109 H109      -75.2779   24.9019  -72.5242 H         1 UNK         0.0781 
    110 H110      -75.7988   24.8529  -69.9888 H         1 UNK         0.0836 
    111 H111      -77.3905   24.6729  -69.2957 H         1 UNK         0.0836 
    112 H112      -78.2654   24.9438  -74.6048 H         1 UNK         0.3022 
    113 H113      -79.9729   22.5579  -76.6950 H         1 UNK         0.0747 
    114 H114      -81.7432   23.4389  -75.1745 H         1 UNK         0.0793 
    115 H115      -80.6797   22.3274  -74.3276 H         1 UNK         0.0793 
    116 H116      -80.5141   24.0557  -74.0712 H         1 UNK         0.0793 
    117 H117      -80.1189   25.4306  -76.1193 H         1 UNK         0.3047 
    118 H118      -78.7700   26.4671  -79.1874 H         1 UNK         0.0822 
    119 H119      -81.0018   27.4467  -79.6825 H         1 UNK         0.0807 
    120 H120      -81.7739   26.3081  -78.5776 H         1 UNK         0.0807 
    121 H121      -80.9929   25.7288  -80.0421 H         1 UNK         0.0807 
    122 H122      -80.3701   27.7289  -77.1140 H         1 UNK         0.2946 
    123 H123      -77.6099   28.5863  -75.0558 H         1 UNK         0.1144 
    124 H124      -78.4687   30.8826  -75.4093 H         1 UNK         0.0793 
    125 H125      -79.3656   30.3654  -76.8373 H         1 UNK         0.0793 
    126 H126      -77.6087   30.3462  -76.8430 H         1 UNK         0.0793 
    127 H127      -80.3226   29.2851  -74.7781 H         1 UNK         0.2896 
@<TRIPOS>BOND
     1    1    2 1    
     2    1   67 1    
     3    1   68 1    
     4    1   69 1    
     5    2    3 2    
     6    2    4 am   BACKBONE|DICT|INTERRES
     7    4    5 1    
     8    4   70 1    
     9    5    6 1    
    10    5   65 1    
    11    5   71 1    
    12    6    7 1    
    13    6   72 1    
    14    6   73 1    
    15    7    8 1    
    16    8    9 1    
    17    8   74 1    
    18    8   75 1    
    19    9   10 ar   
    20    9   14 ar   
    21   10   11 ar   
    22   10   76 1    
    23   11   12 ar   
    24   11   48 1    
    25   12   13 ar   
    26   12   77 1    
    27   13   14 ar   
    28   13   15 1    
    29   14   78 1    
    30   15   16 1    
    31   15   79 1    
    32   15   80 1    
    33   16   17 1    
    34   17   18 1    
    35   17   81 1    
    36   17   82 1    
    37   18   19 1    
    38   18   22 1    
    39   18   83 1    
    40   19   20 am   BACKBONE|DICT|INTERRES
    41   19   21 2    
    42   20   84 1    
    43   20   85 1    
    44   22   23 am   BACKBONE|DICT|INTERRES
    45   22   86 1    
    46   23   24 2    
    47   23   25 1    
    48   25   26 1    
    49   25   27 1    
    50   25   87 1    
    51   26   88 1    
    52   26   89 1    
    53   26   90 1    
    54   27   28 am   BACKBONE|DICT|INTERRES
    55   27   91 1    
    56   28   29 2    
    57   28   30 1    
    58   30   31 1    
    59   30   32 1    
    60   30   92 1    
    61   31   93 1    
    62   31   94 1    
    63   31   95 1    
    64   32   33 am   BACKBONE|DICT|INTERRES
    65   32   96 1    
    66   33   34 2    
    67   33   35 1    
    68   35   36 1    
    69   35   37 1    
    70   35   97 1    
    71   36   98 1    
    72   36   99 1    
    73   36  100 1    
    74   37   38 am   BACKBONE|DICT|INTERRES
    75   37  101 1    
    76   38   39 2    
    77   38   40 1    
    78   40   41 1    
    79   40   42 1    
    80   40  102 1    
    81   41  103 1    
    82   41  104 1    
    83   41  105 1    
    84   42   43 am   BACKBONE|DICT|INTERRES
    85   42  106 1    
    86   43   44 2    
    87   43   45 1    
    88   45   46 1    
    89   45   49 1    
    90   45  107 1    
    91   46   47 1    
    92   46  108 1    
    93   46  109 1    
    94   47   48 1    
    95   48  110 1    
    96   48  111 1    
    97   49   50 am   BACKBONE|DICT|INTERRES
    98   49  112 1    
    99   50   51 2    
   100   50   52 1    
   101   52   53 1    
   102   52   54 1    
   103   52  113 1    
   104   53  114 1    
   105   53  115 1    
   106   53  116 1    
   107   54   55 am   BACKBONE|DICT|INTERRES
   108   54  117 1    
   109   55   56 2    
   110   55   57 1    
   111   57   58 1    
   112   57   59 1    
   113   57  118 1    
   114   58  119 1    
   115   58  120 1    
   116   58  121 1    
   117   59   60 am   BACKBONE|DICT|INTERRES
   118   59  122 1    
   119   60   61 2    
   120   60   62 1    
   121   62   63 1    
   122   62   64 1    
   123   62  123 1    
   124   63  124 1    
   125   63  125 1    
   126   63  126 1    
   127   64   65 am   BACKBONE|DICT|INTERRES
   128   64  127 1    
   129   65   66 2    
@<TRIPOS>SUBSTRUCTURE
     1 UNK         1 GROUP             0       ****    0 ROOT    
