@<TRIPOS>MOLECULE
3R135
127   129    1
SMALL
USER_CHARGES


@<TRIPOS>ATOM
      1 CA        -81.5367   28.7820  -69.4887 C.3       0 UNK        -0.1998 
      2 C         -82.2033   27.9676  -70.5877 C.2       0 UNK         0.4909 
      3 O         -82.9771   27.0560  -70.2919 O.2       0 UNK        -0.5240 
      4 N         -81.9158   28.2989  -71.8527 N.am      1 UNK        -0.4739 
      5 CA        -82.3823   27.5745  -73.0394 C.3       1 UNK         0.0864 
      6 C6        -82.3076   28.4718  -74.3097 C.3       11 UNK        -0.0881 
      7 S7        -80.6727   28.6176  -75.1183 S.3       11 UNK        -0.2682 
      8 C8        -79.8808   29.9755  -74.2043 C.3       11 UNK         0.0289 
      9 C9        -78.4953   29.5639  -73.7289 C.ar      11 UNK        -0.0687 
     10 C10       -78.3564   28.7198  -72.6240 C.ar      11 UNK        -0.0823 
     11 C11       -77.0921   28.3303  -72.1766 C.ar      11 UNK        -0.0830 
     12 C12       -75.9551   28.7964  -72.8431 C.ar      11 UNK        -0.1021 
     13 C13       -76.0792   29.6270  -73.9613 C.ar      11 UNK        -0.0753 
     14 C14       -77.3515   30.0129  -74.3958 C.ar      11 UNK        -0.0933 
     15 C15       -74.8433   30.0747  -74.7272 C.3       11 UNK         0.0166 
     16 S16       -74.3966   31.7977  -74.3483 S.3       11 UNK        -0.2615 
     17 C17       -73.6058   31.6226  -72.7109 C.3       11 UNK        -0.0865 
     18 CA        -72.1027   32.0295  -72.7206 C.3       10 UNK         0.0862 
     19 C         -71.4909   32.0903  -71.2861 C.2       10 UNK         0.5551 
     20 N         -70.2111   31.7897  -71.1007 N.am      10 UNK        -0.7319 
     21 O         -72.1739   32.4485  -70.3294 O.2       10 UNK        -0.5018 
     22 N         -71.2983   31.2805  -73.7072 N.am      10 UNK        -0.4509 
     23 C         -71.0643   29.9621  -73.7013 C.2       10 UNK         0.4899 
     24 O         -71.4907   29.1840  -72.8451 O.2       10 UNK        -0.4839 
     25 CA        -70.1499   29.4397  -74.8237 C.3       9 UNK         0.0222 
     26 CB        -68.6724   29.5787  -74.4201 C.3       9 UNK        -0.1966 
     27 N         -70.4288   28.0361  -75.1335 N.am      9 UNK        -0.4218 
     28 C         -71.5053   27.6086  -75.8047 C.2       9 UNK         0.5020 
     29 O         -72.3188   28.3661  -76.3389 O.2       9 UNK        -0.5274 
     30 CA        -71.6854   26.0819  -75.8826 C.3       8 UNK         0.0270 
     31 CB        -71.8566   25.4685  -74.4793 C.3       8 UNK        -0.1976 
     32 N         -72.8549   25.7358  -76.6924 N.am      8 UNK        -0.4313 
     33 C         -72.8261   25.4736  -78.0062 C.2       8 UNK         0.5041 
     34 O         -71.7867   25.4457  -78.6686 O.2       8 UNK        -0.5577 
     35 CA        -74.1587   25.1596  -78.7174 C.3       7 UNK         0.0284 
     36 CB        -74.2615   23.6544  -79.0162 C.3       7 UNK        -0.1958 
     37 N         -75.3488   25.5688  -77.9712 N.am      7 UNK        -0.4454 
     38 C         -75.7556   26.8324  -77.7914 C.2       7 UNK         0.5089 
     39 O         -75.2217   27.8076  -78.3194 O.2       7 UNK        -0.5125 
     40 CA        -76.9618   27.0421  -76.8553 C.3       6 UNK         0.0408 
     41 CB        -78.2586   27.0625  -77.6775 C.3       6 UNK        -0.1791 
     42 N         -77.0743   26.0413  -75.7846 N.am      6 UNK        -0.4762 
     43 C         -76.1252   25.7796  -74.8704 C.2       6 UNK         0.5007 
     44 O         -75.0321   26.3414  -74.8480 O.2       6 UNK        -0.5032 
     45 CA        -76.4008   24.6422  -73.8710 C.3       5 UNK         0.0783 
     46 C46       -77.2216   25.1085  -72.6435 C.3       11 UNK        -0.0857 
     47 S47       -76.1405   25.8301  -71.3606 S.3       11 UNK        -0.2512 
     48 C48       -76.9671   27.4069  -70.9718 C.3       11 UNK         0.0225 
     49 N         -77.0207   23.5085  -74.5574 N.am      5 UNK        -0.4615 
     50 C         -76.3289   22.5653  -75.2126 C.2       4 UNK         0.5053 
     51 O         -75.0995   22.5113  -75.2368 O.2       4 UNK        -0.5105 
     52 CA        -77.1349   21.5061  -75.9852 C.3       4 UNK         0.0263 
     53 CB        -77.4119   20.2854  -75.0931 C.3       4 UNK        -0.1981 
     54 N         -78.4001   22.0147  -76.5176 N.am      4 UNK        -0.4224 
     55 C         -78.5043   22.9625  -77.4598 C.2       3 UNK         0.4895 
     56 O         -77.5399   23.4805  -78.0222 O.2       3 UNK        -0.5091 
     57 CA        -79.9258   23.4433  -77.8000 C.3       3 UNK         0.0250 
     58 CB        -80.5178   22.5988  -78.9396 C.3       3 UNK        -0.1996 
     59 N         -80.8525   23.4473  -76.6601 N.am      3 UNK        -0.4254 
     60 C         -80.6751   24.1297  -75.5188 C.2       2 UNK         0.5004 
     61 O         -79.6576   24.7782  -75.2669 O.2       2 UNK        -0.5226 
     62 CA        -81.8071   24.0189  -74.4827 C.3       2 UNK         0.0269 
     63 CB        -81.4092   23.0892  -73.3177 C.3       2 UNK        -0.1926 
     64 N         -82.2764   25.3350  -74.0236 N.am      2 UNK        -0.4687 
     65 C         -81.6735   26.2056  -73.1983 C.2       1 UNK         0.5165 
     66 O         -80.6261   25.9812  -72.5866 O.2       1 UNK        -0.5079 
     67 H67       -80.8887   29.5600  -69.8921 H         1 UNK         0.0900 
     68 H68       -82.2916   29.2593  -68.8644 H         1 UNK         0.0900 
     69 H69       -80.9320   28.1324  -68.8565 H         1 UNK         0.0900 
     70 H70       -81.2708   29.0521  -72.0318 H         1 UNK         0.2959 
     71 H71       -83.4388   27.3540  -72.8678 H         1 UNK         0.1079 
     72 H72       -82.6940   29.4697  -74.0953 H         1 UNK         0.0837 
     73 H73       -82.9860   28.0687  -75.0634 H         1 UNK         0.0837 
     74 H74       -80.4868   30.2751  -73.3494 H         1 UNK         0.0685 
     75 H75       -79.8212   30.8496  -74.8545 H         1 UNK         0.0685 
     76 H76       -79.2355   28.3465  -72.1206 H         1 UNK         0.1434 
     77 H77       -74.9747   28.4823  -72.5116 H         1 UNK         0.1329 
     78 H78       -77.4484   30.6530  -75.2619 H         1 UNK         0.1335 
     79 H79       -73.9991   29.4183  -74.5118 H         1 UNK         0.0680 
     80 H80       -75.0287   29.9824  -75.7985 H         1 UNK         0.0680 
     81 H81       -73.7210   30.6040  -72.3395 H         1 UNK         0.1032 
     82 H82       -74.1676   32.2529  -72.0193 H         1 UNK         0.1032 
     83 H83       -72.0640   33.0642  -73.0630 H         1 UNK         0.0461 
     84 H84       -69.8201   31.8426  -70.1733 H         1 UNK         0.3453 
     85 H85       -69.6370   31.5044  -71.8770 H         1 UNK         0.3453 
     86 H86       -70.8880   31.8406  -74.4406 H         1 UNK         0.2984 
     87 H87       -70.3225   30.0342  -75.7237 H         1 UNK         0.0554 
     88 H88       -68.4140   30.6207  -74.2271 H         1 UNK         0.0847 
     89 H89       -68.0096   29.2263  -75.2108 H         1 UNK         0.0847 
     90 H90       -68.4450   29.0141  -73.5148 H         1 UNK         0.0847 
     91 H91       -69.8283   27.3520  -74.6970 H         1 UNK         0.3141 
     92 H92       -70.7874   25.6562  -76.3354 H         1 UNK         0.0743 
     93 H93       -70.9345   25.5375  -73.9017 H         1 UNK         0.0784 
     94 H94       -72.6328   25.9765  -73.9059 H         1 UNK         0.0784 
     95 H95       -72.1206   24.4120  -74.5355 H         1 UNK         0.0784 
     96 H96       -73.7526   25.8500  -76.2291 H         1 UNK         0.3213 
     97 H97       -74.1532   25.6983  -79.6673 H         1 UNK         0.0855 
     98 H98       -74.2972   23.0644  -78.0991 H         1 UNK         0.0814 
     99 H99       -73.4037   23.3090  -79.5949 H         1 UNK         0.0814 
    100 H100      -75.1558   23.4251  -79.5962 H         1 UNK         0.0814 
    101 H101      -75.9158   24.8289  -77.5723 H         1 UNK         0.3105 
    102 H102      -76.8453   28.0128  -76.3721 H         1 UNK         0.0547 
    103 H103      -79.1417   27.0884  -77.0411 H         1 UNK         0.0837 
    104 H104      -78.3359   26.1879  -78.3224 H         1 UNK         0.0837 
    105 H105      -78.2929   27.9418  -78.3215 H         1 UNK         0.0837 
    106 H106      -77.9650   25.5555  -75.7048 H         1 UNK         0.3020 
    107 H107      -75.4260   24.3074  -73.5066 H         1 UNK         0.1245 
    108 H108      -77.7307   24.2599  -72.1841 H         1 UNK         0.0781 
    109 H109      -78.0122   25.8029  -72.9323 H         1 UNK         0.0781 
    110 H110      -76.4004   27.9182  -70.1926 H         1 UNK         0.0836 
    111 H111      -77.9472   27.1888  -70.5440 H         1 UNK         0.0836 
    112 H112      -78.0289   23.5396  -74.6464 H         1 UNK         0.3022 
    113 H113      -76.5238   21.1819  -76.8306 H         1 UNK         0.0747 
    114 H114      -77.9091   19.4909  -75.6499 H         1 UNK         0.0793 
    115 H115      -76.4820   19.8705  -74.7012 H         1 UNK         0.0793 
    116 H116      -78.0395   20.5424  -74.2387 H         1 UNK         0.0793 
    117 H117      -79.2489   21.6454  -76.1151 H         1 UNK         0.3047 
    118 H118      -79.8472   24.4726  -78.1513 H         1 UNK         0.0822 
    119 H119      -81.4796   22.9927  -79.2686 H         1 UNK         0.0807 
    120 H120      -80.6632   21.5598  -78.6411 H         1 UNK         0.0807 
    121 H121      -79.8573   22.5987  -79.8082 H         1 UNK         0.0807 
    122 H122      -81.7068   22.9223  -76.7828 H         1 UNK         0.2946 
    123 H123      -82.6697   23.5649  -74.9738 H         1 UNK         0.1144 
    124 H124      -81.2375   22.0731  -73.6744 H         1 UNK         0.0793 
    125 H125      -82.1933   23.0397  -72.5622 H         1 UNK         0.0793 
    126 H126      -80.4906   23.4139  -72.8279 H         1 UNK         0.0793 
    127 H127      -83.1265   25.6473  -74.4721 H         1 UNK         0.2896 
@<TRIPOS>BOND
     1    1    2 1    
     2    1   67 1    
     3    1   68 1    
     4    1   69 1    
     5    2    3 2    
     6    2    4 am   BACKBONE|DICT|INTERRES
     7    4    5 1    
     8    4   70 1    
     9    5    6 1    
    10    5   65 1    
    11    5   71 1    
    12    6    7 1    
    13    6   72 1    
    14    6   73 1    
    15    7    8 1    
    16    8    9 1    
    17    8   74 1    
    18    8   75 1    
    19    9   10 ar   
    20    9   14 ar   
    21   10   11 ar   
    22   10   76 1    
    23   11   12 ar   
    24   11   48 1    
    25   12   13 ar   
    26   12   77 1    
    27   13   14 ar   
    28   13   15 1    
    29   14   78 1    
    30   15   16 1    
    31   15   79 1    
    32   15   80 1    
    33   16   17 1    
    34   17   18 1    
    35   17   81 1    
    36   17   82 1    
    37   18   19 1    
    38   18   22 1    
    39   18   83 1    
    40   19   20 am   BACKBONE|DICT|INTERRES
    41   19   21 2    
    42   20   84 1    
    43   20   85 1    
    44   22   23 am   BACKBONE|DICT|INTERRES
    45   22   86 1    
    46   23   24 2    
    47   23   25 1    
    48   25   26 1    
    49   25   27 1    
    50   25   87 1    
    51   26   88 1    
    52   26   89 1    
    53   26   90 1    
    54   27   28 am   BACKBONE|DICT|INTERRES
    55   27   91 1    
    56   28   29 2    
    57   28   30 1    
    58   30   31 1    
    59   30   32 1    
    60   30   92 1    
    61   31   93 1    
    62   31   94 1    
    63   31   95 1    
    64   32   33 am   BACKBONE|DICT|INTERRES
    65   32   96 1    
    66   33   34 2    
    67   33   35 1    
    68   35   36 1    
    69   35   37 1    
    70   35   97 1    
    71   36   98 1    
    72   36   99 1    
    73   36  100 1    
    74   37   38 am   BACKBONE|DICT|INTERRES
    75   37  101 1    
    76   38   39 2    
    77   38   40 1    
    78   40   41 1    
    79   40   42 1    
    80   40  102 1    
    81   41  103 1    
    82   41  104 1    
    83   41  105 1    
    84   42   43 am   BACKBONE|DICT|INTERRES
    85   42  106 1    
    86   43   44 2    
    87   43   45 1    
    88   45   46 1    
    89   45   49 1    
    90   45  107 1    
    91   46   47 1    
    92   46  108 1    
    93   46  109 1    
    94   47   48 1    
    95   48  110 1    
    96   48  111 1    
    97   49   50 am   BACKBONE|DICT|INTERRES
    98   49  112 1    
    99   50   51 2    
   100   50   52 1    
   101   52   53 1    
   102   52   54 1    
   103   52  113 1    
   104   53  114 1    
   105   53  115 1    
   106   53  116 1    
   107   54   55 am   BACKBONE|DICT|INTERRES
   108   54  117 1    
   109   55   56 2    
   110   55   57 1    
   111   57   58 1    
   112   57   59 1    
   113   57  118 1    
   114   58  119 1    
   115   58  120 1    
   116   58  121 1    
   117   59   60 am   BACKBONE|DICT|INTERRES
   118   59  122 1    
   119   60   61 2    
   120   60   62 1    
   121   62   63 1    
   122   62   64 1    
   123   62  123 1    
   124   63  124 1    
   125   63  125 1    
   126   63  126 1    
   127   64   65 am   BACKBONE|DICT|INTERRES
   128   64  127 1    
   129   65   66 2    
@<TRIPOS>SUBSTRUCTURE
     1 UNK         1 GROUP             0       ****    0 ROOT    
