@<TRIPOS>MOLECULE
3R135
127   129    1
SMALL
USER_CHARGES


@<TRIPOS>ATOM
      1 CA        -79.9972   22.4555  -70.8573 C.3       0 UNK        -0.1998 
      2 C         -80.1344   23.7092  -71.7058 C.2       0 UNK         0.4909 
      3 O         -79.4923   23.8048  -72.7527 O.2       0 UNK        -0.5240 
      4 N         -80.9797   24.6569  -71.2731 N.am      1 UNK        -0.4739 
      5 CA        -81.2632   25.9860  -71.8511 C.3       1 UNK         0.0864 
      6 C6        -80.0197   26.9066  -71.9662 C.3       11 UNK        -0.0881 
      7 S7        -79.0718   27.1144  -70.4183 S.3       11 UNK        -0.2682 
      8 C8        -78.8556   28.9243  -70.3256 C.3       11 UNK         0.0289 
      9 C9        -78.1981   29.4985  -71.5751 C.ar      11 UNK        -0.0687 
     10 C10       -78.9792   30.1463  -72.5377 C.ar      11 UNK        -0.0823 
     11 C11       -78.4030   30.6361  -73.7118 C.ar      11 UNK        -0.0830 
     12 C12       -77.0209   30.5412  -73.8853 C.ar      11 UNK        -0.1021 
     13 C13       -76.2334   29.8667  -72.9498 C.ar      11 UNK        -0.0753 
     14 C14       -76.8228   29.3557  -71.7887 C.ar      11 UNK        -0.0933 
     15 C15       -74.7675   29.6173  -73.2535 C.3       11 UNK         0.0166 
     16 S16       -73.6998   30.9608  -72.6566 S.3       11 UNK        -0.2615 
     17 C17       -72.9787   30.2190  -71.1521 C.3       11 UNK        -0.0865 
     18 CA        -71.5299   29.6949  -71.3885 C.3       10 UNK         0.0862 
     19 C         -70.7937   29.3331  -70.0607 C.2       10 UNK         0.5551 
     20 N         -69.8712   28.3784  -70.0589 N.am      10 UNK        -0.7319 
     21 O         -71.0337   29.9461  -69.0230 O.2       10 UNK        -0.5018 
     22 N         -71.4544   28.6617  -72.4413 N.am      10 UNK        -0.4509 
     23 C         -71.9895   27.4351  -72.3905 C.2       10 UNK         0.4899 
     24 O         -72.6272   27.0012  -71.4301 O.2       10 UNK        -0.4839 
     25 CA        -71.8005   26.5655  -73.6454 C.3       9 UNK         0.0222 
     26 CB        -72.2990   25.1215  -73.4505 C.3       9 UNK        -0.1966 
     27 N         -72.4883   27.1456  -74.7986 N.am      9 UNK        -0.4218 
     28 C         -71.9972   28.0892  -75.6120 C.2       9 UNK         0.5020 
     29 O         -70.9122   28.6462  -75.4280 O.2       9 UNK        -0.5274 
     30 CA        -72.8676   28.4491  -76.8354 C.3       8 UNK         0.0270 
     31 CB        -72.1285   29.3179  -77.8746 C.3       8 UNK        -0.1976 
     32 N         -73.4613   27.2599  -77.4634 N.am      8 UNK        -0.4313 
     33 C         -72.8186   26.2101  -77.9992 C.2       8 UNK         0.5041 
     34 O         -71.5972   26.1522  -78.1479 O.2       8 UNK        -0.5577 
     35 CA        -73.6675   24.9909  -78.4073 C.3       7 UNK         0.0284 
     36 CB        -73.4898   23.8627  -77.3773 C.3       7 UNK        -0.1958 
     37 N         -75.0973   25.2806  -78.5496 N.am      7 UNK        -0.4454 
     38 C         -75.6452   25.9261  -79.5882 C.2       7 UNK         0.5089 
     39 O         -75.0071   26.3182  -80.5655 O.2       7 UNK        -0.5125 
     40 CA        -77.1575   26.2086  -79.5085 C.3       6 UNK         0.0408 
     41 CB        -77.9674   24.9776  -79.9443 C.3       6 UNK        -0.1791 
     42 N         -77.5957   26.6385  -78.1767 N.am      6 UNK        -0.4762 
     43 C         -77.1719   27.7502  -77.5560 C.2       6 UNK         0.5007 
     44 O         -76.3765   28.5485  -78.0519 O.2       6 UNK        -0.5032 
     45 CA        -77.6555   27.9708  -76.1112 C.3       5 UNK         0.0783 
     46 C46       -79.0740   28.5963  -76.0336 C.3       11 UNK        -0.0857 
     47 S47       -79.0504   30.3840  -76.4314 S.3       11 UNK        -0.2512 
     48 C48       -79.2869   31.2088  -74.8135 C.3       11 UNK         0.0225 
     49 N         -77.5305   26.7412  -75.3263 N.am      5 UNK        -0.4615 
     50 C         -76.3575   26.2323  -74.9202 C.2       4 UNK         0.5053 
     51 O         -75.2730   26.7861  -75.0957 O.2       4 UNK        -0.5105 
     52 CA        -76.3793   24.8536  -74.2442 C.3       4 UNK         0.0263 
     53 CB        -76.4215   24.9979  -72.7154 C.3       4 UNK        -0.1981 
     54 N         -77.4845   24.0105  -74.7075 N.am      4 UNK        -0.4224 
     55 C         -77.5632   23.5019  -75.9466 C.2       3 UNK         0.4895 
     56 O         -76.7031   23.6754  -76.8090 O.2       3 UNK        -0.5091 
     57 CA        -78.8288   22.7075  -76.3043 C.3       3 UNK         0.0250 
     58 CB        -78.7473   21.2799  -75.7412 C.3       3 UNK        -0.1996 
     59 N         -80.0627   23.3464  -75.8425 N.am      3 UNK        -0.4254 
     60 C         -80.5067   24.5500  -76.2349 C.2       2 UNK         0.5004 
     61 O         -79.9164   25.2771  -77.0340 O.2       2 UNK        -0.5226 
     62 CA        -81.7753   25.0553  -75.5426 C.3       2 UNK         0.0269 
     63 CB        -83.0038   24.1806  -75.8498 C.3       2 UNK        -0.1926 
     64 N         -81.5012   25.0861  -74.1125 N.am      2 UNK        -0.4687 
     65 C         -81.9780   25.9543  -73.2212 C.2       1 UNK         0.5165 
     66 O         -82.8952   26.7420  -73.4547 O.2       1 UNK        -0.5079 
     67 H67       -78.9616   22.3323  -70.5416 H         1 UNK         0.0900 
     68 H68       -80.6222   22.4946  -69.9655 H         1 UNK         0.0900 
     69 H69       -80.2837   21.5784  -71.4367 H         1 UNK         0.0900 
     70 H70       -81.4864   24.4731  -70.4182 H         1 UNK         0.2959 
     71 H71       -81.9589   26.4615  -71.1574 H         1 UNK         0.1079 
     72 H72       -79.3335   26.5444  -72.7324 H         1 UNK         0.0837 
     73 H73       -80.3506   27.8857  -72.3088 H         1 UNK         0.0837 
     74 H74       -79.8273   29.3900  -70.1534 H         1 UNK         0.0685 
     75 H75       -78.2457   29.1624  -69.4530 H         1 UNK         0.0685 
     76 H76       -80.0468   30.2343  -72.3889 H         1 UNK         0.1434 
     77 H77       -76.5692   30.9231  -74.7910 H         1 UNK         0.1329 
     78 H78       -76.2196   28.8233  -71.0662 H         1 UNK         0.1335 
     79 H79       -74.6309   29.5229  -74.3306 H         1 UNK         0.0680 
     80 H80       -74.4662   28.6577  -72.8362 H         1 UNK         0.0680 
     81 H81       -72.9811   30.9991  -70.3888 H         1 UNK         0.1032 
     82 H82       -73.6247   29.4292  -70.7662 H         1 UNK         0.1032 
     83 H83       -70.9546   30.5335  -71.7823 H         1 UNK         0.0461 
     84 H84       -69.3903   28.1560  -69.2016 H         1 UNK         0.3453 
     85 H85       -69.6552   27.8775  -70.9057 H         1 UNK         0.3453 
     86 H86       -70.9776   28.9297  -73.2949 H         1 UNK         0.2984 
     87 H87       -70.7297   26.5187  -73.8542 H         1 UNK         0.0554 
     88 H88       -71.7916   24.6427  -72.6120 H         1 UNK         0.0847 
     89 H89       -72.1072   24.5133  -74.3346 H         1 UNK         0.0847 
     90 H90       -73.3689   25.0875  -73.2465 H         1 UNK         0.0847 
     91 H91       -73.4445   26.8353  -74.9640 H         1 UNK         0.3141 
     92 H92       -73.7042   29.0364  -76.4559 H         1 UNK         0.0743 
     93 H93       -71.8005   30.2593  -77.4323 H         1 UNK         0.0784 
     94 H94       -71.2425   28.8175  -78.2664 H         1 UNK         0.0784 
     95 H95       -72.7760   29.5634  -78.7165 H         1 UNK         0.0784 
     96 H96       -74.4676   27.1918  -77.3819 H         1 UNK         0.3213 
     97 H97       -73.2903   24.6376  -79.3695 H         1 UNK         0.0855 
     98 H98       -73.8484   24.1597  -76.3913 H         1 UNK         0.0814 
     99 H99       -72.4392   23.5878  -77.2731 H         1 UNK         0.0814 
    100 H100      -74.0317   22.9645  -77.6740 H         1 UNK         0.0814 
    101 H101      -75.7139   24.9085  -77.8295 H         1 UNK         0.3105 
    102 H102      -77.3788   27.0214  -80.2032 H         1 UNK         0.0547 
    103 H103      -79.0364   25.1905  -79.9575 H         1 UNK         0.0837 
    104 H104      -77.6865   24.6618  -80.9498 H         1 UNK         0.0837 
    105 H105      -77.8051   24.1295  -79.2788 H         1 UNK         0.0837 
    106 H106      -78.2816   26.0497  -77.7094 H         1 UNK         0.3020 
    107 H107      -76.9514   28.6782  -75.6760 H         1 UNK         0.1245 
    108 H108      -79.4918   28.4659  -75.0345 H         1 UNK         0.0781 
    109 H109      -79.7665   28.0897  -76.7085 H         1 UNK         0.0781 
    110 H110      -80.3408   31.1331  -74.5415 H         1 UNK         0.0836 
    111 H111      -79.0746   32.2730  -74.9236 H         1 UNK         0.0836 
    112 H112      -78.3684   26.1964  -75.1923 H         1 UNK         0.3022 
    113 H113      -75.4466   24.3500  -74.5050 H         1 UNK         0.0747 
    114 H114      -75.5932   25.6096  -72.3549 H         1 UNK         0.0793 
    115 H115      -77.3404   25.4732  -72.3771 H         1 UNK         0.0793 
    116 H116      -76.3487   24.0279  -72.2238 H         1 UNK         0.0793 
    117 H117      -78.2362   23.8335  -74.0415 H         1 UNK         0.3047 
    118 H118      -78.8789   22.6433  -77.3933 H         1 UNK         0.0822 
    119 H119      -77.8391   20.7786  -76.0792 H         1 UNK         0.0807 
    120 H120      -79.5913   20.6742  -76.0716 H         1 UNK         0.0807 
    121 H121      -78.7363   21.2750  -74.6503 H         1 UNK         0.0807 
    122 H122      -80.6042   22.8324  -75.1628 H         1 UNK         0.2946 
    123 H123      -81.9655   26.0710  -75.8984 H         1 UNK         0.1144 
    124 H124      -83.9054   24.6021  -75.4051 H         1 UNK         0.0793 
    125 H125      -82.8912   23.1650  -75.4694 H         1 UNK         0.0793 
    126 H126      -83.1747   24.1128  -76.9250 H         1 UNK         0.0793 
    127 H127      -80.7233   24.5113  -73.7896 H         1 UNK         0.2896 
@<TRIPOS>BOND
     1    1    2 1    
     2    1   67 1    
     3    1   68 1    
     4    1   69 1    
     5    2    3 2    
     6    2    4 am   BACKBONE|DICT|INTERRES
     7    4    5 1    
     8    4   70 1    
     9    5    6 1    
    10    5   65 1    
    11    5   71 1    
    12    6    7 1    
    13    6   72 1    
    14    6   73 1    
    15    7    8 1    
    16    8    9 1    
    17    8   74 1    
    18    8   75 1    
    19    9   10 ar   
    20    9   14 ar   
    21   10   11 ar   
    22   10   76 1    
    23   11   12 ar   
    24   11   48 1    
    25   12   13 ar   
    26   12   77 1    
    27   13   14 ar   
    28   13   15 1    
    29   14   78 1    
    30   15   16 1    
    31   15   79 1    
    32   15   80 1    
    33   16   17 1    
    34   17   18 1    
    35   17   81 1    
    36   17   82 1    
    37   18   19 1    
    38   18   22 1    
    39   18   83 1    
    40   19   20 am   BACKBONE|DICT|INTERRES
    41   19   21 2    
    42   20   84 1    
    43   20   85 1    
    44   22   23 am   BACKBONE|DICT|INTERRES
    45   22   86 1    
    46   23   24 2    
    47   23   25 1    
    48   25   26 1    
    49   25   27 1    
    50   25   87 1    
    51   26   88 1    
    52   26   89 1    
    53   26   90 1    
    54   27   28 am   BACKBONE|DICT|INTERRES
    55   27   91 1    
    56   28   29 2    
    57   28   30 1    
    58   30   31 1    
    59   30   32 1    
    60   30   92 1    
    61   31   93 1    
    62   31   94 1    
    63   31   95 1    
    64   32   33 am   BACKBONE|DICT|INTERRES
    65   32   96 1    
    66   33   34 2    
    67   33   35 1    
    68   35   36 1    
    69   35   37 1    
    70   35   97 1    
    71   36   98 1    
    72   36   99 1    
    73   36  100 1    
    74   37   38 am   BACKBONE|DICT|INTERRES
    75   37  101 1    
    76   38   39 2    
    77   38   40 1    
    78   40   41 1    
    79   40   42 1    
    80   40  102 1    
    81   41  103 1    
    82   41  104 1    
    83   41  105 1    
    84   42   43 am   BACKBONE|DICT|INTERRES
    85   42  106 1    
    86   43   44 2    
    87   43   45 1    
    88   45   46 1    
    89   45   49 1    
    90   45  107 1    
    91   46   47 1    
    92   46  108 1    
    93   46  109 1    
    94   47   48 1    
    95   48  110 1    
    96   48  111 1    
    97   49   50 am   BACKBONE|DICT|INTERRES
    98   49  112 1    
    99   50   51 2    
   100   50   52 1    
   101   52   53 1    
   102   52   54 1    
   103   52  113 1    
   104   53  114 1    
   105   53  115 1    
   106   53  116 1    
   107   54   55 am   BACKBONE|DICT|INTERRES
   108   54  117 1    
   109   55   56 2    
   110   55   57 1    
   111   57   58 1    
   112   57   59 1    
   113   57  118 1    
   114   58  119 1    
   115   58  120 1    
   116   58  121 1    
   117   59   60 am   BACKBONE|DICT|INTERRES
   118   59  122 1    
   119   60   61 2    
   120   60   62 1    
   121   62   63 1    
   122   62   64 1    
   123   62  123 1    
   124   63  124 1    
   125   63  125 1    
   126   63  126 1    
   127   64   65 am   BACKBONE|DICT|INTERRES
   128   64  127 1    
   129   65   66 2    
@<TRIPOS>SUBSTRUCTURE
     1 UNK         1 GROUP             0       ****    0 ROOT    
