@<TRIPOS>MOLECULE
3R135
127   129    1
SMALL
USER_CHARGES


@<TRIPOS>ATOM
      1 CA        -80.9042   24.7272  -72.4179 C.3       0 UNK        -0.1998 
      2 C         -81.3150   25.5158  -73.6498 C.2       0 UNK         0.4909 
      3 O         -82.3351   25.2064  -74.2665 O.2       0 UNK        -0.5240 
      4 N         -80.5238   26.5281  -74.0254 N.am      1 UNK        -0.4739 
      5 CA        -80.7722   27.4351  -75.1574 C.3       1 UNK         0.0864 
      6 C6        -80.1064   28.8196  -74.9426 C.3       11 UNK        -0.0881 
      7 S7        -80.6836   29.6220  -73.4064 S.3       11 UNK        -0.2682 
      8 C8        -79.2629   30.6747  -72.9570 C.3       11 UNK         0.0289 
      9 C9        -77.9775   29.8965  -72.6921 C.ar      11 UNK        -0.0687 
     10 C10       -77.9698   28.7735  -71.8582 C.ar      11 UNK        -0.0823 
     11 C11       -76.7868   28.0632  -71.6298 C.ar      11 UNK        -0.0830 
     12 C12       -75.5973   28.4939  -72.2268 C.ar      11 UNK        -0.1021 
     13 C13       -75.5890   29.6264  -73.0468 C.ar      11 UNK        -0.0753 
     14 C14       -76.7805   30.3206  -73.2747 C.ar      11 UNK        -0.0933 
     15 C15       -74.3058   30.0945  -73.7154 C.3       11 UNK         0.0166 
     16 S16       -73.5366   31.4702  -72.8122 S.3       11 UNK        -0.2615 
     17 C17       -72.4449   30.5889  -71.6445 C.3       11 UNK        -0.0865 
     18 CA        -70.9531   30.9926  -71.8310 C.3       10 UNK         0.0862 
     19 C         -70.0357   30.4774  -70.6778 C.2       10 UNK         0.5551 
     20 N         -68.7516   30.2396  -70.9165 N.am      10 UNK        -0.7319 
     21 O         -70.4802   30.3220  -69.5427 O.2       10 UNK        -0.5018 
     22 N         -70.4476   30.7356  -73.1958 N.am      10 UNK        -0.4509 
     23 C         -70.2369   29.5351  -73.7522 C.2       10 UNK         0.4899 
     24 O         -70.4620   28.4626  -73.1889 O.2       10 UNK        -0.4839 
     25 CA        -69.6678   29.5603  -75.1848 C.3       9 UNK         0.0222 
     26 CB        -68.9837   28.2330  -75.5791 C.3       9 UNK        -0.1966 
     27 N         -70.6755   29.9536  -76.1803 N.am      9 UNK        -0.4218 
     28 C         -71.8135   29.3098  -76.4788 C.2       9 UNK         0.5020 
     29 O         -72.1692   28.2465  -75.9678 O.2       9 UNK        -0.5274 
     30 CA        -72.6943   29.9445  -77.5622 C.3       8 UNK         0.0270 
     31 CB        -72.2921   29.4453  -78.9625 C.3       8 UNK        -0.1976 
     32 N         -74.0827   29.5951  -77.2798 N.am      8 UNK        -0.4313 
     33 C         -75.1731   30.2399  -77.7034 C.2       8 UNK         0.5041 
     34 O         -75.1286   31.1902  -78.4874 O.2       8 UNK        -0.5577 
     35 CA        -76.5373   29.7637  -77.1470 C.3       7 UNK         0.0284 
     36 CB        -77.7262   30.4790  -77.8160 C.3       7 UNK        -0.1958 
     37 N         -76.7589   28.3149  -77.2260 N.am      7 UNK        -0.4454 
     38 C         -76.1395   27.3810  -76.4961 C.2       7 UNK         0.5089 
     39 O         -75.2571   27.6292  -75.6733 O.2       7 UNK        -0.5125 
     40 CA        -76.5378   25.9250  -76.7583 C.3       6 UNK         0.0408 
     41 CB        -75.8056   25.3810  -77.9957 C.3       6 UNK        -0.1791 
     42 N         -76.1671   25.1240  -75.5963 N.am      6 UNK        -0.4762 
     43 C         -77.0172   24.4471  -74.8213 C.2       6 UNK         0.5007 
     44 O         -78.2298   24.3460  -75.0445 O.2       6 UNK        -0.5032 
     45 CA        -76.4006   23.7452  -73.5990 C.3       5 UNK         0.0783 
     46 C46       -76.0660   24.7196  -72.4375 C.3       11 UNK        -0.0857 
     47 S47       -77.5180   25.3919  -71.5571 S.3       11 UNK        -0.2512 
     48 C48       -76.8035   26.8424  -70.7223 C.3       11 UNK         0.0225 
     49 N         -77.3237   22.6864  -73.2147 N.am      5 UNK        -0.4615 
     50 C         -77.0080   21.4221  -72.9313 C.2       4 UNK         0.5053 
     51 O         -75.8588   21.0244  -72.7390 O.2       4 UNK        -0.5105 
     52 CA        -78.1803   20.4217  -72.8968 C.3       4 UNK         0.0263 
     53 CB        -78.6566   20.2053  -71.4513 C.3       4 UNK        -0.1981 
     54 N         -79.3256   20.8238  -73.7280 N.am      4 UNK        -0.4224 
     55 C         -79.3025   20.9829  -75.0613 C.2       3 UNK         0.4895 
     56 O         -78.3111   20.7628  -75.7585 O.2       3 UNK        -0.5091 
     57 CA        -80.5844   21.4862  -75.7391 C.3       3 UNK         0.0250 
     58 CB        -81.8165   21.5738  -74.8114 C.3       3 UNK        -0.1996 
     59 N         -80.3174   22.7946  -76.3362 N.am      3 UNK        -0.4254 
     60 C         -80.8734   23.2486  -77.4659 C.2       2 UNK         0.5004 
     61 O         -81.6675   22.5966  -78.1471 O.2       2 UNK        -0.5226 
     62 CA        -80.5251   24.6918  -77.8617 C.3       2 UNK         0.0269 
     63 CB        -81.2395   25.1637  -79.1456 C.3       2 UNK        -0.1926 
     64 N         -80.8586   25.5641  -76.7392 N.am      2 UNK        -0.4687 
     65 C         -80.3735   26.7867  -76.5046 C.2       1 UNK         0.5165 
     66 O         -79.6321   27.3819  -77.2894 O.2       1 UNK        -0.5079 
     67 H67       -80.5293   25.3905  -71.6389 H         1 UNK         0.0900 
     68 H68       -80.1245   24.0104  -72.6707 H         1 UNK         0.0900 
     69 H69       -81.7541   24.1804  -72.0103 H         1 UNK         0.0900 
     70 H70       -79.6748   26.7074  -73.5081 H         1 UNK         0.2959 
     71 H71       -81.8491   27.6075  -75.2210 H         1 UNK         0.1079 
     72 H72       -79.0198   28.7175  -74.9255 H         1 UNK         0.0837 
     73 H73       -80.3407   29.4897  -75.7713 H         1 UNK         0.0837 
     74 H74       -79.5175   31.2406  -72.0602 H         1 UNK         0.0685 
     75 H75       -79.1147   31.4071  -73.7522 H         1 UNK         0.0685 
     76 H76       -78.8892   28.4447  -71.3932 H         1 UNK         0.1434 
     77 H77       -74.6789   27.9492  -72.0570 H         1 UNK         0.1329 
     78 H78       -76.7714   31.1966  -73.9086 H         1 UNK         0.1335 
     79 H79       -73.6018   29.2693  -73.8338 H         1 UNK         0.0680 
     80 H80       -74.5340   30.4426  -74.7211 H         1 UNK         0.0680 
     81 H81       -72.7893   30.8367  -70.6389 H         1 UNK         0.1032 
     82 H82       -72.5647   29.5091  -71.7423 H         1 UNK         0.1032 
     83 H83       -70.9113   32.0770  -71.7221 H         1 UNK         0.0461 
     84 H84       -68.3699   30.3751  -71.8386 H         1 UNK         0.3453 
     85 H85       -68.1606   29.9176  -70.1662 H         1 UNK         0.3453 
     86 H86       -70.2312   31.5609  -73.7359 H         1 UNK         0.2984 
     87 H87       -68.8974   30.3329  -75.2059 H         1 UNK         0.0554 
     88 H88       -68.5377   28.2959  -76.5716 H         1 UNK         0.0847 
     89 H89       -69.6810   27.3946  -75.5788 H         1 UNK         0.0847 
     90 H90       -68.1846   27.9861  -74.8792 H         1 UNK         0.0847 
     91 H91       -70.4862   30.8209  -76.6644 H         1 UNK         0.3141 
     92 H92       -72.5869   31.0302  -77.5127 H         1 UNK         0.0743 
     93 H93       -71.2496   29.6817  -79.1791 H         1 UNK         0.0784 
     94 H94       -72.4080   28.3642  -79.0503 H         1 UNK         0.0784 
     95 H95       -72.8970   29.9107  -79.7408 H         1 UNK         0.0784 
     96 H96       -74.1994   28.8264  -76.6162 H         1 UNK         0.3213 
     97 H97       -76.5502   30.0363  -76.0915 H         1 UNK         0.0855 
     98 H98       -77.6509   31.5609  -77.6990 H         1 UNK         0.0814 
     99 H99       -78.6746   30.1750  -77.3747 H         1 UNK         0.0814 
    100 H100      -77.7719   30.2674  -78.8849 H         1 UNK         0.0814 
    101 H101      -77.5071   28.0139  -77.8383 H         1 UNK         0.3105 
    102 H102      -77.6103   25.8753  -76.9347 H         1 UNK         0.0547 
    103 H103      -76.0630   24.3379  -78.1798 H         1 UNK         0.0837 
    104 H104      -76.0758   25.9431  -78.8905 H         1 UNK         0.0837 
    105 H105      -74.7221   25.4445  -77.8852 H         1 UNK         0.0837 
    106 H106      -75.2087   25.2407  -75.2948 H         1 UNK         0.3020 
    107 H107      -75.4689   23.2877  -73.9413 H         1 UNK         0.1245 
    108 H108      -75.4526   25.5461  -72.8010 H         1 UNK         0.0781 
    109 H109      -75.4515   24.1981  -71.7023 H         1 UNK         0.0781 
    110 H110      -75.8010   26.6071  -70.3612 H         1 UNK         0.0836 
    111 H111      -77.3992   27.0637  -69.8355 H         1 UNK         0.0836 
    112 H112      -78.2883   22.9098  -73.4129 H         1 UNK         0.3022 
    113 H113      -77.8078   19.4708  -73.2835 H         1 UNK         0.0747 
    114 H114      -79.4291   19.4379  -71.3972 H         1 UNK         0.0793 
    115 H115      -77.8332   19.8783  -70.8146 H         1 UNK         0.0793 
    116 H116      -79.0594   21.1215  -71.0172 H         1 UNK         0.0793 
    117 H117      -80.1911   21.0085  -73.2418 H         1 UNK         0.3047 
    118 H118      -80.8056   20.7663  -76.5301 H         1 UNK         0.0822 
    119 H119      -82.0406   20.6092  -74.3537 H         1 UNK         0.0807 
    120 H120      -82.7038   21.8683  -75.3724 H         1 UNK         0.0807 
    121 H121      -81.6820   22.3056  -74.0150 H         1 UNK         0.0807 
    122 H122      -79.6245   23.3734  -75.8630 H         1 UNK         0.2946 
    123 H123      -79.4468   24.7253  -78.0304 H         1 UNK         0.1144 
    124 H124      -82.3230   25.1720  -79.0214 H         1 UNK         0.0793 
    125 H125      -81.0098   24.5059  -79.9847 H         1 UNK         0.0793 
    126 H126      -80.9276   26.1682  -79.4313 H         1 UNK         0.0793 
    127 H127      -81.4547   25.1580  -76.0217 H         1 UNK         0.2896 
@<TRIPOS>BOND
     1    1    2 1    
     2    1   67 1    
     3    1   68 1    
     4    1   69 1    
     5    2    3 2    
     6    2    4 am   BACKBONE|DICT|INTERRES
     7    4    5 1    
     8    4   70 1    
     9    5    6 1    
    10    5   65 1    
    11    5   71 1    
    12    6    7 1    
    13    6   72 1    
    14    6   73 1    
    15    7    8 1    
    16    8    9 1    
    17    8   74 1    
    18    8   75 1    
    19    9   10 ar   
    20    9   14 ar   
    21   10   11 ar   
    22   10   76 1    
    23   11   12 ar   
    24   11   48 1    
    25   12   13 ar   
    26   12   77 1    
    27   13   14 ar   
    28   13   15 1    
    29   14   78 1    
    30   15   16 1    
    31   15   79 1    
    32   15   80 1    
    33   16   17 1    
    34   17   18 1    
    35   17   81 1    
    36   17   82 1    
    37   18   19 1    
    38   18   22 1    
    39   18   83 1    
    40   19   20 am   BACKBONE|DICT|INTERRES
    41   19   21 2    
    42   20   84 1    
    43   20   85 1    
    44   22   23 am   BACKBONE|DICT|INTERRES
    45   22   86 1    
    46   23   24 2    
    47   23   25 1    
    48   25   26 1    
    49   25   27 1    
    50   25   87 1    
    51   26   88 1    
    52   26   89 1    
    53   26   90 1    
    54   27   28 am   BACKBONE|DICT|INTERRES
    55   27   91 1    
    56   28   29 2    
    57   28   30 1    
    58   30   31 1    
    59   30   32 1    
    60   30   92 1    
    61   31   93 1    
    62   31   94 1    
    63   31   95 1    
    64   32   33 am   BACKBONE|DICT|INTERRES
    65   32   96 1    
    66   33   34 2    
    67   33   35 1    
    68   35   36 1    
    69   35   37 1    
    70   35   97 1    
    71   36   98 1    
    72   36   99 1    
    73   36  100 1    
    74   37   38 am   BACKBONE|DICT|INTERRES
    75   37  101 1    
    76   38   39 2    
    77   38   40 1    
    78   40   41 1    
    79   40   42 1    
    80   40  102 1    
    81   41  103 1    
    82   41  104 1    
    83   41  105 1    
    84   42   43 am   BACKBONE|DICT|INTERRES
    85   42  106 1    
    86   43   44 2    
    87   43   45 1    
    88   45   46 1    
    89   45   49 1    
    90   45  107 1    
    91   46   47 1    
    92   46  108 1    
    93   46  109 1    
    94   47   48 1    
    95   48  110 1    
    96   48  111 1    
    97   49   50 am   BACKBONE|DICT|INTERRES
    98   49  112 1    
    99   50   51 2    
   100   50   52 1    
   101   52   53 1    
   102   52   54 1    
   103   52  113 1    
   104   53  114 1    
   105   53  115 1    
   106   53  116 1    
   107   54   55 am   BACKBONE|DICT|INTERRES
   108   54  117 1    
   109   55   56 2    
   110   55   57 1    
   111   57   58 1    
   112   57   59 1    
   113   57  118 1    
   114   58  119 1    
   115   58  120 1    
   116   58  121 1    
   117   59   60 am   BACKBONE|DICT|INTERRES
   118   59  122 1    
   119   60   61 2    
   120   60   62 1    
   121   62   63 1    
   122   62   64 1    
   123   62  123 1    
   124   63  124 1    
   125   63  125 1    
   126   63  126 1    
   127   64   65 am   BACKBONE|DICT|INTERRES
   128   64  127 1    
   129   65   66 2    
@<TRIPOS>SUBSTRUCTURE
     1 UNK         1 GROUP             0       ****    0 ROOT    
