@<TRIPOS>MOLECULE
3R135
127   129    1
SMALL
USER_CHARGES


@<TRIPOS>ATOM
      1 CA        -84.8136   26.6410  -71.2120 C.3       0 UNK        -0.1998 
      2 C         -83.5744   26.9621  -72.0338 C.2       0 UNK         0.4909 
      3 O         -83.5741   27.9358  -72.7872 O.2       0 UNK        -0.5240 
      4 N         -82.5184   26.1493  -71.8971 N.am      1 UNK        -0.4739 
      5 CA        -81.2385   26.3146  -72.6008 C.3       1 UNK         0.0864 
      6 C6        -80.0843   25.5719  -71.8812 C.3       11 UNK        -0.0881 
      7 S7        -79.8232   26.1350  -70.1641 S.3       11 UNK        -0.2682 
      8 C8        -77.9975   26.2607  -70.0764 C.3       11 UNK         0.0289 
      9 C9        -77.3574   27.4570  -70.7891 C.ar      11 UNK        -0.0687 
     10 C10       -78.1092   28.4753  -71.3910 C.ar      11 UNK        -0.0823 
     11 C11       -77.4748   29.5350  -72.0412 C.ar      11 UNK        -0.0830 
     12 C12       -76.0839   29.6182  -72.0295 C.ar      11 UNK        -0.1021 
     13 C13       -75.3120   28.5858  -71.4978 C.ar      11 UNK        -0.0753 
     14 C14       -75.9588   27.5172  -70.8635 C.ar      11 UNK        -0.0933 
     15 C15       -73.8018   28.5476  -71.7230 C.3       11 UNK         0.0166 
     16 S16       -72.9050   30.0454  -71.1924 S.3       11 UNK        -0.2615 
     17 C17       -72.8422   31.2431  -72.5880 C.3       11 UNK        -0.0865 
     18 CA        -73.2378   30.8168  -74.0407 C.3       10 UNK         0.0862 
     19 C         -73.3149   32.0327  -75.0159 C.2       10 UNK         0.5551 
     20 N         -74.0708   33.0659  -74.6668 N.am      10 UNK        -0.7319 
     21 O         -72.7264   32.0532  -76.0960 O.2       10 UNK        -0.5018 
     22 N         -72.4664   29.6941  -74.5908 N.am      10 UNK        -0.4509 
     23 C         -71.1473   29.6371  -74.8059 C.2       10 UNK         0.4899 
     24 O         -70.3427   30.4847  -74.4142 O.2       10 UNK        -0.4839 
     25 CA        -70.6598   28.4356  -75.6402 C.3       9 UNK         0.0222 
     26 CB        -69.1243   28.2714  -75.6330 C.3       9 UNK        -0.1966 
     27 N         -71.3308   27.1747  -75.2976 N.am      9 UNK        -0.4218 
     28 C         -71.2696   26.5147  -74.1292 C.2       9 UNK         0.5020 
     29 O         -70.6310   26.9139  -73.1546 O.2       9 UNK        -0.5274 
     30 CA        -72.0319   25.1783  -74.0107 C.3       8 UNK         0.0270 
     31 CB        -72.9193   25.1430  -72.7538 C.3       8 UNK        -0.1976 
     32 N         -72.8495   24.8581  -75.1853 N.am      8 UNK        -0.4313 
     33 C         -72.3898   24.2657  -76.2957 C.2       8 UNK         0.5041 
     34 O         -71.2224   23.9009  -76.4397 O.2       8 UNK        -0.5577 
     35 CA        -73.3823   24.0691  -77.4560 C.3       7 UNK         0.0284 
     36 CB        -74.1342   22.7385  -77.3042 C.3       7 UNK        -0.1958 
     37 N         -74.3393   25.1694  -77.6277 N.am      7 UNK        -0.4454 
     38 C         -73.9948   26.4284  -77.9395 C.2       7 UNK         0.5089 
     39 O         -72.8307   26.8241  -78.0096 O.2       7 UNK        -0.5125 
     40 CA        -75.1417   27.4166  -78.2045 C.3       6 UNK         0.0408 
     41 CB        -75.7961   27.1524  -79.5701 C.3       6 UNK        -0.1791 
     42 N         -76.1522   27.3697  -77.1492 N.am      6 UNK        -0.4762 
     43 C         -75.9666   27.8762  -75.9218 C.2       6 UNK         0.5007 
     44 O         -74.9423   28.4681  -75.5808 O.2       6 UNK        -0.5032 
     45 CA        -77.0762   27.6059  -74.8831 C.3       5 UNK         0.0783 
     46 C46       -78.2609   28.6090  -74.9852 C.3       11 UNK        -0.0857 
     47 S47       -77.8445   30.3588  -74.6444 S.3       11 UNK        -0.2512 
     48 C48       -78.2711   30.5264  -72.8731 C.3       11 UNK         0.0225 
     49 N         -77.5440   26.2138  -74.9330 N.am      5 UNK        -0.4615 
     50 C         -76.7603   25.1376  -74.7593 C.2       4 UNK         0.5053 
     51 O         -75.5647   25.2051  -74.4859 O.2       4 UNK        -0.5105 
     52 CA        -77.3756   23.7466  -74.9832 C.3       4 UNK         0.0263 
     53 CB        -77.8973   23.1399  -73.6736 C.3       4 UNK        -0.1981 
     54 N         -78.4287   23.7095  -75.9953 N.am      4 UNK        -0.4224 
     55 C         -78.3041   24.0562  -77.2816 C.2       3 UNK         0.4895 
     56 O         -77.2508   24.4606  -77.7781 O.2       3 UNK        -0.5091 
     57 CA        -79.5696   23.9659  -78.1580 C.3       3 UNK         0.0250 
     58 CB        -79.7339   22.5506  -78.7443 C.3       3 UNK        -0.1996 
     59 N         -80.8048   24.4321  -77.5010 N.am      3 UNK        -0.4254 
     60 C         -81.4483   23.9113  -76.4440 C.2       2 UNK         0.5004 
     61 O         -81.1167   22.8706  -75.8717 O.2       2 UNK        -0.5226 
     62 CA        -82.6171   24.7360  -75.8767 C.3       2 UNK         0.0269 
     63 CB        -83.9276   23.9329  -75.9198 C.3       2 UNK        -0.1926 
     64 N         -82.3651   25.1772  -74.4987 N.am      2 UNK        -0.4687 
     65 C         -81.3103   25.9015  -74.0898 C.2       1 UNK         0.5165 
     66 O         -80.4030   26.2511  -74.8448 O.2       1 UNK        -0.5079 
     67 H67       -85.0582   27.4790  -70.5599 H         1 UNK         0.0900 
     68 H68       -85.6638   26.4609  -71.8694 H         1 UNK         0.0900 
     69 H69       -84.6726   25.7575  -70.5895 H         1 UNK         0.0900 
     70 H70       -82.5633   25.3773  -71.2466 H         1 UNK         0.2959 
     71 H71       -80.9971   27.3796  -72.6021 H         1 UNK         0.1079 
     72 H72       -79.1511   25.7069  -72.4314 H         1 UNK         0.0837 
     73 H73       -80.2807   24.4989  -71.8538 H         1 UNK         0.0837 
     74 H74       -77.7186   26.3080  -69.0230 H         1 UNK         0.0685 
     75 H75       -77.5672   25.3364  -70.4655 H         1 UNK         0.0685 
     76 H76       -79.1878   28.4377  -71.3915 H         1 UNK         0.1434 
     77 H77       -75.6180   30.4569  -72.5155 H         1 UNK         0.1329 
     78 H78       -75.3714   26.7096  -70.4479 H         1 UNK         0.1335 
     79 H79       -73.6053   28.3191  -72.7672 H         1 UNK         0.0680 
     80 H80       -73.3734   27.7176  -71.1598 H         1 UNK         0.0680 
     81 H81       -73.4765   32.0700  -72.2670 H         1 UNK         0.1032 
     82 H82       -71.8348   31.6613  -72.5994 H         1 UNK         0.1032 
     83 H83       -74.2521   30.4353  -74.0341 H         1 UNK         0.0461 
     84 H84       -74.1355   33.8523  -75.2943 H         1 UNK         0.3453 
     85 H85       -74.5946   33.0724  -73.8065 H         1 UNK         0.3453 
     86 H86       -73.0498   28.9725  -75.0009 H         1 UNK         0.2984 
     87 H87       -70.9538   28.6529  -76.6682 H         1 UNK         0.0554 
     88 H88       -68.6351   29.1616  -76.0302 H         1 UNK         0.0847 
     89 H89       -68.8119   27.4292  -76.2502 H         1 UNK         0.0847 
     90 H90       -68.7371   28.1126  -74.6261 H         1 UNK         0.0847 
     91 H91       -71.8899   26.7722  -76.0417 H         1 UNK         0.3141 
     92 H92       -71.2735   24.4015  -73.8929 H         1 UNK         0.0743 
     93 H93       -73.7047   25.8962  -72.7960 H         1 UNK         0.0784 
     94 H94       -73.3995   24.1714  -72.6369 H         1 UNK         0.0784 
     95 H95       -72.3367   25.3255  -71.8500 H         1 UNK         0.0784 
     96 H96       -73.8406   25.0895  -75.1174 H         1 UNK         0.3213 
     97 H97       -72.7965   24.0162  -78.3764 H         1 UNK         0.0855 
     98 H98       -74.6493   22.6758  -76.3476 H         1 UNK         0.0814 
     99 H99       -73.4412   21.8974  -77.3495 H         1 UNK         0.0814 
    100 H100      -74.8693   22.5971  -78.0970 H         1 UNK         0.0814 
    101 H101      -75.3276   24.9334  -77.5953 H         1 UNK         0.3105 
    102 H102      -74.7172   28.4228  -78.2297 H         1 UNK         0.0547 
    103 H103      -75.0573   27.2053  -80.3708 H         1 UNK         0.0837 
    104 H104      -76.2585   26.1663  -79.6203 H         1 UNK         0.0837 
    105 H105      -76.5642   27.8936  -79.7907 H         1 UNK         0.0837 
    106 H106      -76.9812   26.8203  -77.3303 H         1 UNK         0.3020 
    107 H107      -76.6085   27.7221  -73.9066 H         1 UNK         0.1245 
    108 H108      -79.0415   28.3241  -74.2806 H         1 UNK         0.0781 
    109 H109      -78.7216   28.5521  -75.9729 H         1 UNK         0.0781 
    110 H110      -79.3447   30.3817  -72.7430 H         1 UNK         0.0836 
    111 H111      -78.0499   31.5420  -72.5421 H         1 UNK         0.0836 
    112 H112      -78.5353   26.0806  -75.1159 H         1 UNK         0.3022 
    113 H113      -76.5720   23.1032  -75.3385 H         1 UNK         0.0747 
    114 H114      -78.0348   22.0629  -73.7712 H         1 UNK         0.0793 
    115 H115      -77.2010   23.3038  -72.8494 H         1 UNK         0.0793 
    116 H116      -78.8573   23.5651  -73.3919 H         1 UNK         0.0793 
    117 H117      -79.3425   23.3703  -75.7035 H         1 UNK         0.3047 
    118 H118      -79.4084   24.6471  -78.9953 H         1 UNK         0.0822 
    119 H119      -80.5863   22.4988  -79.4217 H         1 UNK         0.0807 
    120 H120      -79.8762   21.7981  -77.9682 H         1 UNK         0.0807 
    121 H121      -78.8494   22.2623  -79.3140 H         1 UNK         0.0807 
    122 H122      -81.1479   25.3156  -77.8531 H         1 UNK         0.2946 
    123 H123      -82.7470   25.6319  -76.4877 H         1 UNK         0.1144 
    124 H124      -84.7737   24.5333  -75.5848 H         1 UNK         0.0793 
    125 H125      -83.8765   23.0431  -75.2907 H         1 UNK         0.0793 
    126 H126      -84.1488   23.6012  -76.9352 H         1 UNK         0.0793 
    127 H127      -83.0523   24.9179  -73.8066 H         1 UNK         0.2896 
@<TRIPOS>BOND
     1    1    2 1    
     2    1   67 1    
     3    1   68 1    
     4    1   69 1    
     5    2    3 2    
     6    2    4 am   BACKBONE|DICT|INTERRES
     7    4    5 1    
     8    4   70 1    
     9    5    6 1    
    10    5   65 1    
    11    5   71 1    
    12    6    7 1    
    13    6   72 1    
    14    6   73 1    
    15    7    8 1    
    16    8    9 1    
    17    8   74 1    
    18    8   75 1    
    19    9   10 ar   
    20    9   14 ar   
    21   10   11 ar   
    22   10   76 1    
    23   11   12 ar   
    24   11   48 1    
    25   12   13 ar   
    26   12   77 1    
    27   13   14 ar   
    28   13   15 1    
    29   14   78 1    
    30   15   16 1    
    31   15   79 1    
    32   15   80 1    
    33   16   17 1    
    34   17   18 1    
    35   17   81 1    
    36   17   82 1    
    37   18   19 1    
    38   18   22 1    
    39   18   83 1    
    40   19   20 am   BACKBONE|DICT|INTERRES
    41   19   21 2    
    42   20   84 1    
    43   20   85 1    
    44   22   23 am   BACKBONE|DICT|INTERRES
    45   22   86 1    
    46   23   24 2    
    47   23   25 1    
    48   25   26 1    
    49   25   27 1    
    50   25   87 1    
    51   26   88 1    
    52   26   89 1    
    53   26   90 1    
    54   27   28 am   BACKBONE|DICT|INTERRES
    55   27   91 1    
    56   28   29 2    
    57   28   30 1    
    58   30   31 1    
    59   30   32 1    
    60   30   92 1    
    61   31   93 1    
    62   31   94 1    
    63   31   95 1    
    64   32   33 am   BACKBONE|DICT|INTERRES
    65   32   96 1    
    66   33   34 2    
    67   33   35 1    
    68   35   36 1    
    69   35   37 1    
    70   35   97 1    
    71   36   98 1    
    72   36   99 1    
    73   36  100 1    
    74   37   38 am   BACKBONE|DICT|INTERRES
    75   37  101 1    
    76   38   39 2    
    77   38   40 1    
    78   40   41 1    
    79   40   42 1    
    80   40  102 1    
    81   41  103 1    
    82   41  104 1    
    83   41  105 1    
    84   42   43 am   BACKBONE|DICT|INTERRES
    85   42  106 1    
    86   43   44 2    
    87   43   45 1    
    88   45   46 1    
    89   45   49 1    
    90   45  107 1    
    91   46   47 1    
    92   46  108 1    
    93   46  109 1    
    94   47   48 1    
    95   48  110 1    
    96   48  111 1    
    97   49   50 am   BACKBONE|DICT|INTERRES
    98   49  112 1    
    99   50   51 2    
   100   50   52 1    
   101   52   53 1    
   102   52   54 1    
   103   52  113 1    
   104   53  114 1    
   105   53  115 1    
   106   53  116 1    
   107   54   55 am   BACKBONE|DICT|INTERRES
   108   54  117 1    
   109   55   56 2    
   110   55   57 1    
   111   57   58 1    
   112   57   59 1    
   113   57  118 1    
   114   58  119 1    
   115   58  120 1    
   116   58  121 1    
   117   59   60 am   BACKBONE|DICT|INTERRES
   118   59  122 1    
   119   60   61 2    
   120   60   62 1    
   121   62   63 1    
   122   62   64 1    
   123   62  123 1    
   124   63  124 1    
   125   63  125 1    
   126   63  126 1    
   127   64   65 am   BACKBONE|DICT|INTERRES
   128   64  127 1    
   129   65   66 2    
@<TRIPOS>SUBSTRUCTURE
     1 UNK         1 GROUP             0       ****    0 ROOT    
