@<TRIPOS>MOLECULE
3R135
127   129    1
SMALL
USER_CHARGES


@<TRIPOS>ATOM
      1 CA        -79.3970   29.7360  -78.1906 C.3       0 UNK        -0.1998 
      2 C         -78.9282   28.6494  -77.2356 C.2       0 UNK         0.4909 
      3 O         -77.8242   28.1304  -77.3928 O.2       0 UNK        -0.5240 
      4 N         -79.7557   28.3034  -76.2403 N.am      1 UNK        -0.4739 
      5 CA        -79.4749   27.2521  -75.2526 C.3       1 UNK         0.0864 
      6 C6        -80.3270   27.4220  -73.9689 C.3       11 UNK        -0.0881 
      7 S7        -80.1153   29.0015  -73.0596 S.3       11 UNK        -0.2682 
      8 C8        -78.3660   29.4986  -73.2681 C.3       11 UNK         0.0289 
      9 C9        -77.4123   28.8672  -72.2542 C.ar      11 UNK        -0.0687 
     10 C10       -77.3630   27.4818  -72.0583 C.ar      11 UNK        -0.0823 
     11 C11       -76.4811   26.9200  -71.1294 C.ar      11 UNK        -0.0830 
     12 C12       -75.6225   27.7514  -70.4075 C.ar      11 UNK        -0.1021 
     13 C13       -75.6424   29.1339  -70.6066 C.ar      11 UNK        -0.0753 
     14 C14       -76.5439   29.6853  -71.5224 C.ar      11 UNK        -0.0933 
     15 C15       -74.6897   30.0306  -69.8295 C.3       11 UNK         0.0166 
     16 S16       -73.3935   30.7392  -70.8929 S.3       11 UNK        -0.2615 
     17 C17       -72.5395   29.2388  -71.4902 C.3       11 UNK        -0.0865 
     18 CA        -71.3261   29.5741  -72.3981 C.3       10 UNK         0.0862 
     19 C         -70.5010   28.2992  -72.7353 C.2       10 UNK         0.5551 
     20 N         -70.2335   27.9922  -73.9991 N.am      10 UNK        -0.7319 
     21 O         -70.0731   27.5866  -71.8304 O.2       10 UNK        -0.5018 
     22 N         -71.7506   30.3220  -73.5927 N.am      10 UNK        -0.4509 
     23 C         -71.2503   31.4973  -73.9988 C.2       10 UNK         0.4899 
     24 O         -70.3244   32.0794  -73.4325 O.2       10 UNK        -0.4839 
     25 CA        -71.8725   32.1492  -75.2528 C.3       9 UNK         0.0222 
     26 CB        -70.9060   32.0495  -76.4450 C.3       9 UNK        -0.1966 
     27 N         -73.1603   31.5663  -75.6362 N.am      9 UNK        -0.4218 
     28 C         -74.3065   31.7006  -74.9540 C.2       9 UNK         0.5020 
     29 O         -74.4560   32.4930  -74.0236 O.2       9 UNK        -0.5274 
     30 CA        -75.4817   30.7834  -75.3545 C.3       8 UNK         0.0270 
     31 CB        -76.6227   31.6044  -75.9782 C.3       8 UNK        -0.1976 
     32 N         -75.1344   29.6682  -76.2508 N.am      8 UNK        -0.4313 
     33 C         -74.2781   28.6799  -75.9592 C.2       8 UNK         0.5041 
     34 O         -73.6986   28.5793  -74.8771 O.2       8 UNK        -0.5577 
     35 CA        -74.0152   27.6506  -77.0622 C.3       7 UNK         0.0284 
     36 CB        -72.6145   27.0147  -76.9440 C.3       7 UNK        -0.1958 
     37 N         -75.0432   26.6233  -76.9793 N.am      7 UNK        -0.4454 
     38 C         -75.4038   25.7958  -77.9675 C.2       7 UNK         0.5089 
     39 O         -74.9131   25.8268  -79.0978 O.2       7 UNK        -0.5125 
     40 CA        -76.4950   24.7570  -77.6267 C.3       6 UNK         0.0408 
     41 CB        -76.4823   23.5374  -78.5713 C.3       6 UNK        -0.1791 
     42 N         -76.4758   24.3255  -76.2205 N.am      6 UNK        -0.4762 
     43 C         -75.4506   23.7576  -75.5651 C.2       6 UNK         0.5007 
     44 O         -74.3874   23.4328  -76.0945 O.2       6 UNK        -0.5032 
     45 CA        -75.6175   23.5668  -74.0458 C.3       5 UNK         0.0783 
     46 C46       -75.1059   24.8314  -73.3096 C.3       11 UNK        -0.0857 
     47 S47       -74.9757   24.5972  -71.5056 S.3       11 UNK        -0.2512 
     48 C48       -76.4771   25.4185  -70.8787 C.3       11 UNK         0.0225 
     49 N         -76.9851   23.2164  -73.6423 N.am      5 UNK        -0.4615 
     50 C         -77.6186   22.0763  -73.9446 C.2       4 UNK         0.5053 
     51 O         -77.1675   21.2187  -74.7035 O.2       4 UNK        -0.5105 
     52 CA        -78.9660   21.8313  -73.2517 C.3       4 UNK         0.0263 
     53 CB        -79.0548   22.4270  -71.8307 C.3       4 UNK        -0.1981 
     54 N         -80.0570   22.3494  -74.0717 N.am      4 UNK        -0.4224 
     55 C         -81.2697   21.7840  -74.1655 C.2       3 UNK         0.4895 
     56 O         -81.5786   20.7396  -73.5892 O.2       3 UNK        -0.5091 
     57 CA        -82.3421   22.4946  -75.0167 C.3       3 UNK         0.0250 
     58 CB        -83.3962   23.1508  -74.1088 C.3       3 UNK        -0.1996 
     59 N         -81.8065   23.5104  -75.9236 N.am      3 UNK        -0.4254 
     60 C         -81.0817   23.2560  -77.0203 C.2       2 UNK         0.5004 
     61 O         -80.8558   22.1221  -77.4429 O.2       2 UNK        -0.5226 
     62 CA        -80.4860   24.4666  -77.7612 C.3       2 UNK         0.0269 
     63 CB        -81.3075   24.7832  -79.0211 C.3       2 UNK        -0.1926 
     64 N         -80.3464   25.6944  -76.9631 N.am      2 UNK        -0.4687 
     65 C         -79.6352   25.8330  -75.8328 C.2       1 UNK         0.5165 
     66 O         -79.0945   24.8916  -75.2503 O.2       1 UNK        -0.5079 
     67 H67       -80.3169   30.2097  -77.8484 H         1 UNK         0.0900 
     68 H68       -78.6348   30.5083  -78.2882 H         1 UNK         0.0900 
     69 H69       -79.5778   29.3118  -79.1777 H         1 UNK         0.0900 
     70 H70       -80.6401   28.7814  -76.1356 H         1 UNK         0.2959 
     71 H71       -78.4201   27.3062  -74.9817 H         1 UNK         0.1079 
     72 H72       -80.1358   26.6094  -73.2658 H         1 UNK         0.0837 
     73 H73       -81.3867   27.3363  -74.2170 H         1 UNK         0.0837 
     74 H74       -78.3407   30.5838  -73.1578 H         1 UNK         0.0685 
     75 H75       -78.0105   29.3155  -74.2791 H         1 UNK         0.0685 
     76 H76       -78.0165   26.8339  -72.6190 H         1 UNK         0.1434 
     77 H77       -74.9347   27.3176  -69.6942 H         1 UNK         0.1329 
     78 H78       -76.5528   30.7564  -71.6731 H         1 UNK         0.1335 
     79 H79       -75.2545   30.8441  -69.3720 H         1 UNK         0.0680 
     80 H80       -74.2203   29.4846  -69.0097 H         1 UNK         0.0680 
     81 H81       -72.2255   28.6604  -70.6192 H         1 UNK         0.1032 
     82 H82       -73.2523   28.6155  -72.0346 H         1 UNK         0.1032 
     83 H83       -70.6497   30.1955  -71.8087 H         1 UNK         0.0461 
     84 H84       -70.5822   28.5726  -74.7436 H         1 UNK         0.3453 
     85 H85       -69.6905   27.1692  -74.2055 H         1 UNK         0.3453 
     86 H86       -72.5012   29.8826  -74.1198 H         1 UNK         0.2984 
     87 H87       -72.0309   33.2058  -75.0274 H         1 UNK         0.0554 
     88 H88       -69.9453   32.5090  -76.2079 H         1 UNK         0.0847 
     89 H89       -71.2999   32.5649  -77.3211 H         1 UNK         0.0847 
     90 H90       -70.7100   31.0131  -76.7228 H         1 UNK         0.0847 
     91 H91       -73.1477   30.9071  -76.3996 H         1 UNK         0.3141 
     92 H92       -75.8437   30.3445  -74.4239 H         1 UNK         0.0743 
     93 H93       -76.3436   32.0105  -76.9511 H         1 UNK         0.0784 
     94 H94       -77.5202   31.0020  -76.1063 H         1 UNK         0.0784 
     95 H95       -76.8963   32.4459  -75.3399 H         1 UNK         0.0784 
     96 H96       -75.6124   29.6390  -77.1416 H         1 UNK         0.3213 
     97 H97       -74.0872   28.1569  -78.0274 H         1 UNK         0.0855 
     98 H98       -72.5061   26.4471  -76.0186 H         1 UNK         0.0814 
     99 H99       -71.8362   27.7785  -76.9533 H         1 UNK         0.0814 
    100 H100      -72.4127   26.3377  -77.7740 H         1 UNK         0.0814 
    101 H101      -75.5297   26.5592  -76.0970 H         1 UNK         0.3105 
    102 H102      -77.4404   25.2777  -77.7746 H         1 UNK         0.0547 
    103 H103      -77.2660   22.8256  -78.3121 H         1 UNK         0.0837 
    104 H104      -75.5280   23.0112  -78.5378 H         1 UNK         0.0837 
    105 H105      -76.6496   23.8411  -79.6053 H         1 UNK         0.0837 
    106 H106      -77.3305   24.5040  -75.6982 H         1 UNK         0.3020 
    107 H107      -74.9749   22.7275  -73.7687 H         1 UNK         0.1245 
    108 H108      -75.7347   25.6939  -73.5331 H         1 UNK         0.0781 
    109 H109      -74.1062   25.0987  -73.6598 H         1 UNK         0.0781 
    110 H110      -76.5466   25.2396  -69.8047 H         1 UNK         0.0836 
    111 H111      -77.3587   24.9516  -71.3148 H         1 UNK         0.0836 
    112 H112      -77.4454   23.8651  -73.0249 H         1 UNK         0.3022 
    113 H113      -79.0584   20.7464  -73.1630 H         1 UNK         0.0747 
    114 H114      -79.9153   22.0233  -71.2967 H         1 UNK         0.0793 
    115 H115      -78.1703   22.1843  -71.2396 H         1 UNK         0.0793 
    116 H116      -79.1654   23.5111  -71.8472 H         1 UNK         0.0793 
    117 H117      -79.8551   23.1950  -74.5982 H         1 UNK         0.3047 
    118 H118      -82.8367   21.7288  -75.6182 H         1 UNK         0.0822 
    119 H119      -84.2030   23.5948  -74.6922 H         1 UNK         0.0807 
    120 H120      -82.9613   23.9324  -73.4844 H         1 UNK         0.0807 
    121 H121      -83.8495   22.4162  -73.4415 H         1 UNK         0.0807 
    122 H122      -81.9486   24.4752  -75.6638 H         1 UNK         0.2946 
    123 H123      -79.4862   24.1660  -78.0778 H         1 UNK         0.1144 
    124 H124      -80.8294   25.5558  -79.6237 H         1 UNK         0.0793 
    125 H125      -82.3131   25.1238  -78.7716 H         1 UNK         0.0793 
    126 H126      -81.4101   23.9007  -79.6546 H         1 UNK         0.0793 
    127 H127      -80.7541   26.5301  -77.3572 H         1 UNK         0.2896 
@<TRIPOS>BOND
     1    1    2 1    
     2    1   67 1    
     3    1   68 1    
     4    1   69 1    
     5    2    3 2    
     6    2    4 am   BACKBONE|DICT|INTERRES
     7    4    5 1    
     8    4   70 1    
     9    5    6 1    
    10    5   65 1    
    11    5   71 1    
    12    6    7 1    
    13    6   72 1    
    14    6   73 1    
    15    7    8 1    
    16    8    9 1    
    17    8   74 1    
    18    8   75 1    
    19    9   10 ar   
    20    9   14 ar   
    21   10   11 ar   
    22   10   76 1    
    23   11   12 ar   
    24   11   48 1    
    25   12   13 ar   
    26   12   77 1    
    27   13   14 ar   
    28   13   15 1    
    29   14   78 1    
    30   15   16 1    
    31   15   79 1    
    32   15   80 1    
    33   16   17 1    
    34   17   18 1    
    35   17   81 1    
    36   17   82 1    
    37   18   19 1    
    38   18   22 1    
    39   18   83 1    
    40   19   20 am   BACKBONE|DICT|INTERRES
    41   19   21 2    
    42   20   84 1    
    43   20   85 1    
    44   22   23 am   BACKBONE|DICT|INTERRES
    45   22   86 1    
    46   23   24 2    
    47   23   25 1    
    48   25   26 1    
    49   25   27 1    
    50   25   87 1    
    51   26   88 1    
    52   26   89 1    
    53   26   90 1    
    54   27   28 am   BACKBONE|DICT|INTERRES
    55   27   91 1    
    56   28   29 2    
    57   28   30 1    
    58   30   31 1    
    59   30   32 1    
    60   30   92 1    
    61   31   93 1    
    62   31   94 1    
    63   31   95 1    
    64   32   33 am   BACKBONE|DICT|INTERRES
    65   32   96 1    
    66   33   34 2    
    67   33   35 1    
    68   35   36 1    
    69   35   37 1    
    70   35   97 1    
    71   36   98 1    
    72   36   99 1    
    73   36  100 1    
    74   37   38 am   BACKBONE|DICT|INTERRES
    75   37  101 1    
    76   38   39 2    
    77   38   40 1    
    78   40   41 1    
    79   40   42 1    
    80   40  102 1    
    81   41  103 1    
    82   41  104 1    
    83   41  105 1    
    84   42   43 am   BACKBONE|DICT|INTERRES
    85   42  106 1    
    86   43   44 2    
    87   43   45 1    
    88   45   46 1    
    89   45   49 1    
    90   45  107 1    
    91   46   47 1    
    92   46  108 1    
    93   46  109 1    
    94   47   48 1    
    95   48  110 1    
    96   48  111 1    
    97   49   50 am   BACKBONE|DICT|INTERRES
    98   49  112 1    
    99   50   51 2    
   100   50   52 1    
   101   52   53 1    
   102   52   54 1    
   103   52  113 1    
   104   53  114 1    
   105   53  115 1    
   106   53  116 1    
   107   54   55 am   BACKBONE|DICT|INTERRES
   108   54  117 1    
   109   55   56 2    
   110   55   57 1    
   111   57   58 1    
   112   57   59 1    
   113   57  118 1    
   114   58  119 1    
   115   58  120 1    
   116   58  121 1    
   117   59   60 am   BACKBONE|DICT|INTERRES
   118   59  122 1    
   119   60   61 2    
   120   60   62 1    
   121   62   63 1    
   122   62   64 1    
   123   62  123 1    
   124   63  124 1    
   125   63  125 1    
   126   63  126 1    
   127   64   65 am   BACKBONE|DICT|INTERRES
   128   64  127 1    
   129   65   66 2    
@<TRIPOS>SUBSTRUCTURE
     1 UNK         1 GROUP             0       ****    0 ROOT    
