@<TRIPOS>MOLECULE
3R135
127   129    1
SMALL
USER_CHARGES


@<TRIPOS>ATOM
      1 CA        -85.7997   30.0461  -75.1094 C.3       0 UNK        -0.1998 
      2 C         -84.7313   29.0674  -75.5736 C.2       0 UNK         0.4909 
      3 O         -84.8228   28.5423  -76.6840 O.2       0 UNK        -0.5240 
      4 N         -83.7147   28.8263  -74.7364 N.am      1 UNK        -0.4739 
      5 CA        -82.6222   27.8809  -74.9963 C.3       1 UNK         0.0864 
      6 C6        -81.4341   28.1046  -74.0267 C.3       11 UNK        -0.0881 
      7 S7        -80.6958   29.7601  -74.2313 S.3       11 UNK        -0.2682 
      8 C8        -80.1904   30.1566  -72.5282 C.3       11 UNK         0.0289 
      9 C9        -78.8552   29.5182  -72.1732 C.ar      11 UNK        -0.0687 
     10 C10       -78.8039   28.3077  -71.4733 C.ar      11 UNK        -0.0823 
     11 C11       -77.5717   27.7431  -71.1254 C.ar      11 UNK        -0.0830 
     12 C12       -76.3937   28.3993  -71.4862 C.ar      11 UNK        -0.1021 
     13 C13       -76.4263   29.5954  -72.2061 C.ar      11 UNK        -0.0753 
     14 C14       -77.6641   30.1531  -72.5395 C.ar      11 UNK        -0.0933 
     15 C15       -75.1374   30.2550  -72.6838 C.3       11 UNK         0.0166 
     16 S16       -73.9881   30.6937  -71.3377 S.3       11 UNK        -0.2615 
     17 C17       -72.8476   29.2620  -71.2760 C.3       11 UNK        -0.0865 
     18 CA        -71.6263   29.4211  -72.2219 C.3       10 UNK         0.0862 
     19 C         -70.4756   28.4276  -71.8789 C.2       10 UNK         0.5551 
     20 N         -69.8318   27.7833  -72.8462 N.am      10 UNK        -0.7319 
     21 O         -70.1437   28.2477  -70.7098 O.2       10 UNK        -0.5018 
     22 N         -72.0436   29.3395  -73.6291 N.am      10 UNK        -0.4509 
     23 C         -71.6380   30.1563  -74.6068 C.2       10 UNK         0.4899 
     24 O         -70.8955   31.1240  -74.4317 O.2       10 UNK        -0.4839 
     25 CA        -72.1463   29.8170  -76.0225 C.3       9 UNK         0.0222 
     26 CB        -71.3966   30.5860  -77.1307 C.3       9 UNK        -0.1966 
     27 N         -72.1484   28.3759  -76.3096 N.am      9 UNK        -0.4218 
     28 C         -71.1017   27.5351  -76.2546 C.2       9 UNK         0.5020 
     29 O         -69.9699   27.8847  -75.9156 O.2       9 UNK        -0.5274 
     30 CA        -71.3356   26.0480  -76.5900 C.3       8 UNK         0.0270 
     31 CB        -70.9735   25.1662  -75.3819 C.3       8 UNK        -0.1976 
     32 N         -72.7043   25.7357  -77.0068 N.am      8 UNK        -0.4313 
     33 C         -73.2380   26.0093  -78.2048 C.2       8 UNK         0.5041 
     34 O         -72.6052   26.4957  -79.1422 O.2       8 UNK        -0.5577 
     35 CA        -74.7483   25.7473  -78.3619 C.3       7 UNK         0.0284 
     36 CB        -75.0097   24.2879  -78.7638 C.3       7 UNK        -0.1958 
     37 N         -75.5119   26.0774  -77.1516 N.am      7 UNK        -0.4454 
     38 C         -75.5912   27.3070  -76.6200 C.2       7 UNK         0.5089 
     39 O         -75.0651   28.3029  -77.1156 O.2       7 UNK        -0.5125 
     40 CA        -76.3209   27.4402  -75.2789 C.3       6 UNK         0.0408 
     41 CB        -77.8381   27.5579  -75.4752 C.3       6 UNK        -0.1791 
     42 N         -76.0192   26.3187  -74.3927 N.am      6 UNK        -0.4762 
     43 C         -74.8723   26.1671  -73.7155 C.2       6 UNK         0.5007 
     44 O         -73.9445   26.9793  -73.7453 O.2       6 UNK        -0.5032 
     45 CA        -74.7216   24.8637  -72.9003 C.3       5 UNK         0.0783 
     46 C46       -75.3125   24.9855  -71.4710 C.3       11 UNK        -0.0857 
     47 S47       -77.1453   25.0040  -71.4056 S.3       11 UNK        -0.2512 
     48 C48       -77.5071   26.4393  -70.3409 C.3       11 UNK         0.0225 
     49 N         -75.2538   23.6915  -73.6028 N.am      5 UNK        -0.4615 
     50 C         -74.8069   23.2224  -74.7743 C.2       4 UNK         0.5053 
     51 O         -73.8454   23.6968  -75.3747 O.2       4 UNK        -0.5105 
     52 CA        -75.5889   22.0590  -75.4114 C.3       4 UNK         0.0263 
     53 CB        -74.9895   20.7134  -74.9742 C.3       4 UNK        -0.1981 
     54 N         -77.0307   22.0644  -75.1343 N.am      4 UNK        -0.4224 
     55 C         -77.8701   23.0824  -75.3742 C.2       3 UNK         0.4895 
     56 O         -77.5089   24.1689  -75.8350 O.2       3 UNK        -0.5091 
     57 CA        -79.3438   22.8415  -74.9942 C.3       3 UNK         0.0250 
     58 CB        -79.4951   22.5511  -73.4894 C.3       3 UNK        -0.1996 
     59 N         -80.2007   23.9807  -75.3239 N.am      3 UNK        -0.4254 
     60 C         -80.6132   24.3170  -76.5528 C.2       2 UNK         0.5004 
     61 O         -80.3721   23.6587  -77.5662 O.2       2 UNK        -0.5226 
     62 CA        -81.4824   25.5818  -76.6308 C.3       2 UNK         0.0269 
     63 CB        -82.0629   25.8398  -78.0351 C.3       2 UNK        -0.1926 
     64 N         -82.5719   25.4647  -75.6566 N.am      2 UNK        -0.4687 
     65 C         -83.1268   26.4208  -74.8992 C.2       1 UNK         0.5165 
     66 O         -84.0145   26.1488  -74.0889 O.2       1 UNK        -0.5079 
     67 H67       -86.7701   29.5517  -75.0724 H         1 UNK         0.0900 
     68 H68       -85.8692   30.8830  -75.8038 H         1 UNK         0.0900 
     69 H69       -85.5842   30.4450  -74.1182 H         1 UNK         0.0900 
     70 H70       -83.6946   29.2778  -73.8336 H         1 UNK         0.2959 
     71 H71       -82.2844   28.0720  -76.0158 H         1 UNK         0.1079 
     72 H72       -80.6486   27.3658  -74.1879 H         1 UNK         0.0837 
     73 H73       -81.7617   27.9724  -72.9938 H         1 UNK         0.0837 
     74 H74       -80.9662   29.8562  -71.8225 H         1 UNK         0.0685 
     75 H75       -80.1072   31.2406  -72.4360 H         1 UNK         0.0685 
     76 H76       -79.7224   27.8106  -71.1929 H         1 UNK         0.1434 
     77 H77       -75.4470   27.9662  -71.2163 H         1 UNK         0.1329 
     78 H78       -77.7056   31.0778  -73.0988 H         1 UNK         0.1335 
     79 H79       -75.3643   31.1684  -73.2353 H         1 UNK         0.0680 
     80 H80       -74.6473   29.5943  -73.3952 H         1 UNK         0.0680 
     81 H81       -72.5217   29.1771  -70.2378 H         1 UNK         0.1032 
     82 H82       -73.3692   28.3331  -71.4974 H         1 UNK         0.1032 
     83 H83       -71.2018   30.4082  -72.0311 H         1 UNK         0.0461 
     84 H84       -70.0435   27.9553  -73.8214 H         1 UNK         0.3453 
     85 H85       -69.0853   27.1534  -72.6002 H         1 UNK         0.3453 
     86 H86       -72.6353   28.5472  -73.8603 H         1 UNK         0.2984 
     87 H87       -73.1900   30.1329  -76.0509 H         1 UNK         0.0554 
     88 H88       -71.7966   30.3495  -78.1166 H         1 UNK         0.0847 
     89 H89       -70.3315   30.3517  -77.1355 H         1 UNK         0.0847 
     90 H90       -71.4922   31.6638  -76.9938 H         1 UNK         0.0847 
     91 H91       -73.0480   28.0002  -76.5876 H         1 UNK         0.3141 
     92 H92       -70.6616   25.7948  -77.4108 H         1 UNK         0.0743 
     93 H93       -69.9390   25.3225  -75.0732 H         1 UNK         0.0784 
     94 H94       -71.6075   25.3849  -74.5215 H         1 UNK         0.0784 
     95 H95       -71.0813   24.1072  -75.6170 H         1 UNK         0.0784 
     96 H96       -73.2767   25.2398  -76.3267 H         1 UNK         0.3213 
     97 H97       -75.1152   26.3920  -79.1634 H         1 UNK         0.0855 
     98 H98       -74.5755   23.5899  -78.0492 H         1 UNK         0.0814 
     99 H99       -74.5650   24.0703  -79.7356 H         1 UNK         0.0814 
    100 H100      -76.0768   24.0767  -78.8393 H         1 UNK         0.0814 
    101 H101      -76.0061   25.3228  -76.6854 H         1 UNK         0.3105 
    102 H102      -75.9785   28.3594  -74.8041 H         1 UNK         0.0547 
    103 H103      -78.3397   27.6734  -74.5154 H         1 UNK         0.0837 
    104 H104      -78.0865   28.4329  -76.0770 H         1 UNK         0.0837 
    105 H105      -78.2572   26.6855  -75.9755 H         1 UNK         0.0837 
    106 H106      -76.6988   25.5689  -74.3657 H         1 UNK         0.3020 
    107 H107      -73.6460   24.7027  -72.7952 H         1 UNK         0.1245 
    108 H108      -74.8981   25.8518  -70.9562 H         1 UNK         0.0781 
    109 H109      -74.9837   24.1290  -70.8804 H         1 UNK         0.0781 
    110 H110      -76.7634   26.5130  -69.5460 H         1 UNK         0.0836 
    111 H111      -78.4598   26.2616  -69.8399 H         1 UNK         0.0836 
    112 H112      -76.0609   23.2548  -73.1825 H         1 UNK         0.3022 
    113 H113      -75.4741   22.1431  -76.4926 H         1 UNK         0.0747 
    114 H114      -75.4548   19.8802  -75.5013 H         1 UNK         0.0793 
    115 H115      -73.9209   20.6735  -75.1911 H         1 UNK         0.0793 
    116 H116      -75.1110   20.5451  -73.9034 H         1 UNK         0.0793 
    117 H117      -77.4115   21.2108  -74.7519 H         1 UNK         0.3047 
    118 H118      -79.6927   21.9726  -75.5564 H         1 UNK         0.0822 
    119 H119      -78.9253   21.6728  -73.1847 H         1 UNK         0.0807 
    120 H120      -80.5357   22.3558  -73.2291 H         1 UNK         0.0807 
    121 H121      -79.1543   23.3890  -72.8813 H         1 UNK         0.0807 
    122 H122      -80.4520   24.5831  -74.5546 H         1 UNK         0.2946 
    123 H123      -80.8136   26.4056  -76.3786 H         1 UNK         0.1144 
    124 H124      -81.2673   25.9449  -78.7740 H         1 UNK         0.0793 
    125 H125      -82.6541   26.7552  -78.0651 H         1 UNK         0.0793 
    126 H126      -82.7047   25.0201  -78.3601 H         1 UNK         0.0793 
    127 H127      -82.9173   24.5222  -75.5357 H         1 UNK         0.2896 
@<TRIPOS>BOND
     1    1    2 1    
     2    1   67 1    
     3    1   68 1    
     4    1   69 1    
     5    2    3 2    
     6    2    4 am   BACKBONE|DICT|INTERRES
     7    4    5 1    
     8    4   70 1    
     9    5    6 1    
    10    5   65 1    
    11    5   71 1    
    12    6    7 1    
    13    6   72 1    
    14    6   73 1    
    15    7    8 1    
    16    8    9 1    
    17    8   74 1    
    18    8   75 1    
    19    9   10 ar   
    20    9   14 ar   
    21   10   11 ar   
    22   10   76 1    
    23   11   12 ar   
    24   11   48 1    
    25   12   13 ar   
    26   12   77 1    
    27   13   14 ar   
    28   13   15 1    
    29   14   78 1    
    30   15   16 1    
    31   15   79 1    
    32   15   80 1    
    33   16   17 1    
    34   17   18 1    
    35   17   81 1    
    36   17   82 1    
    37   18   19 1    
    38   18   22 1    
    39   18   83 1    
    40   19   20 am   BACKBONE|DICT|INTERRES
    41   19   21 2    
    42   20   84 1    
    43   20   85 1    
    44   22   23 am   BACKBONE|DICT|INTERRES
    45   22   86 1    
    46   23   24 2    
    47   23   25 1    
    48   25   26 1    
    49   25   27 1    
    50   25   87 1    
    51   26   88 1    
    52   26   89 1    
    53   26   90 1    
    54   27   28 am   BACKBONE|DICT|INTERRES
    55   27   91 1    
    56   28   29 2    
    57   28   30 1    
    58   30   31 1    
    59   30   32 1    
    60   30   92 1    
    61   31   93 1    
    62   31   94 1    
    63   31   95 1    
    64   32   33 am   BACKBONE|DICT|INTERRES
    65   32   96 1    
    66   33   34 2    
    67   33   35 1    
    68   35   36 1    
    69   35   37 1    
    70   35   97 1    
    71   36   98 1    
    72   36   99 1    
    73   36  100 1    
    74   37   38 am   BACKBONE|DICT|INTERRES
    75   37  101 1    
    76   38   39 2    
    77   38   40 1    
    78   40   41 1    
    79   40   42 1    
    80   40  102 1    
    81   41  103 1    
    82   41  104 1    
    83   41  105 1    
    84   42   43 am   BACKBONE|DICT|INTERRES
    85   42  106 1    
    86   43   44 2    
    87   43   45 1    
    88   45   46 1    
    89   45   49 1    
    90   45  107 1    
    91   46   47 1    
    92   46  108 1    
    93   46  109 1    
    94   47   48 1    
    95   48  110 1    
    96   48  111 1    
    97   49   50 am   BACKBONE|DICT|INTERRES
    98   49  112 1    
    99   50   51 2    
   100   50   52 1    
   101   52   53 1    
   102   52   54 1    
   103   52  113 1    
   104   53  114 1    
   105   53  115 1    
   106   53  116 1    
   107   54   55 am   BACKBONE|DICT|INTERRES
   108   54  117 1    
   109   55   56 2    
   110   55   57 1    
   111   57   58 1    
   112   57   59 1    
   113   57  118 1    
   114   58  119 1    
   115   58  120 1    
   116   58  121 1    
   117   59   60 am   BACKBONE|DICT|INTERRES
   118   59  122 1    
   119   60   61 2    
   120   60   62 1    
   121   62   63 1    
   122   62   64 1    
   123   62  123 1    
   124   63  124 1    
   125   63  125 1    
   126   63  126 1    
   127   64   65 am   BACKBONE|DICT|INTERRES
   128   64  127 1    
   129   65   66 2    
@<TRIPOS>SUBSTRUCTURE
     1 UNK         1 GROUP             0       ****    0 ROOT    
