@<TRIPOS>MOLECULE
3R135
127   129    1
SMALL
USER_CHARGES


@<TRIPOS>ATOM
      1 CA        -83.2739   29.9125  -74.9467 C.3       0 UNK        -0.1998 
      2 C         -81.9848   29.5562  -74.2228 C.2       0 UNK         0.4909 
      3 O         -81.0610   30.3697  -74.1761 O.2       0 UNK        -0.5240 
      4 N         -81.9045   28.3398  -73.6674 N.am      1 UNK        -0.4739 
      5 CA        -80.7565   27.8156  -72.9149 C.3       1 UNK         0.0864 
      6 C6        -81.1967   26.7135  -71.9142 C.3       11 UNK        -0.0881 
      7 S7        -82.0399   27.4686  -70.4775 S.3       11 UNK        -0.2682 
      8 C8        -80.8103   27.3348  -69.1278 C.3       11 UNK         0.0289 
      9 C9        -79.3757   27.5741  -69.5857 C.ar      11 UNK        -0.0687 
     10 C10       -78.4570   26.5217  -69.5671 C.ar      11 UNK        -0.0823 
     11 C11       -77.1614   26.7031  -70.0532 C.ar      11 UNK        -0.0830 
     12 C12       -76.7828   27.9513  -70.5508 C.ar      11 UNK        -0.1021 
     13 C13       -77.6905   29.0199  -70.5846 C.ar      11 UNK        -0.0753 
     14 C14       -78.9782   28.8235  -70.0721 C.ar      11 UNK        -0.0933 
     15 C15       -77.3613   30.3777  -71.2155 C.3       11 UNK         0.0166 
     16 S16       -75.5883   30.8010  -71.3480 S.3       11 UNK        -0.2615 
     17 C17       -75.0317   29.7508  -72.7371 C.3       11 UNK        -0.0865 
     18 CA        -74.5372   30.5225  -73.9848 C.3       10 UNK         0.0862 
     19 C         -73.2716   31.3745  -73.6841 C.2       10 UNK         0.5551 
     20 N         -73.3839   32.6951  -73.7103 N.am      10 UNK        -0.7319 
     21 O         -72.2030   30.8418  -73.3953 O.2       10 UNK        -0.5018 
     22 N         -74.2949   29.5595  -75.0639 N.am      10 UNK        -0.4509 
     23 C         -73.9666   29.8433  -76.3304 C.2       10 UNK         0.4899 
     24 O         -73.9675   30.9776  -76.8106 O.2       10 UNK        -0.4839 
     25 CA        -73.5747   28.6251  -77.1896 C.3       9 UNK         0.0222 
     26 CB        -72.8896   29.0009  -78.5202 C.3       9 UNK        -0.1966 
     27 N         -72.7764   27.6604  -76.4202 N.am      9 UNK        -0.4218 
     28 C         -71.5596   27.8507  -75.8804 C.2       9 UNK         0.5020 
     29 O         -70.8593   28.8454  -76.0717 O.2       9 UNK        -0.5274 
     30 CA        -71.0452   26.7436  -74.9459 C.3       8 UNK         0.0270 
     31 CB        -71.6068   26.9371  -73.5258 C.3       8 UNK        -0.1976 
     32 N         -71.4118   25.4159  -75.4390 N.am      8 UNK        -0.4313 
     33 C         -70.6893   24.7084  -76.3190 C.2       8 UNK         0.5041 
     34 O         -69.5729   25.0402  -76.7194 O.2       8 UNK        -0.5577 
     35 CA        -71.3326   23.4188  -76.8618 C.3       7 UNK         0.0284 
     36 CB        -71.0136   22.2256  -75.9463 C.3       7 UNK        -0.1958 
     37 N         -72.7844   23.5410  -77.0199 N.am      7 UNK        -0.4454 
     38 C         -73.3865   24.3527  -77.9013 C.2       7 UNK         0.5089 
     39 O         -72.7847   25.0014  -78.7566 O.2       7 UNK        -0.5125 
     40 CA        -74.9130   24.4935  -77.7940 C.3       6 UNK         0.0408 
     41 CB        -75.6146   23.6621  -78.8772 C.3       6 UNK        -0.1791 
     42 N         -75.4623   24.1318  -76.4835 N.am      6 UNK        -0.4762 
     43 C         -75.2756   24.7980  -75.3355 C.2       6 UNK         0.5007 
     44 O         -74.5228   25.7701  -75.2350 O.2       6 UNK        -0.5032 
     45 CA        -76.0539   24.2758  -74.1064 C.3       5 UNK         0.0783 
     46 C46       -75.8959   25.1741  -72.8512 C.3       11 UNK        -0.0857 
     47 S47       -76.5579   24.3418  -71.3680 S.3       11 UNK        -0.2512 
     48 C48       -76.1784   25.5420  -70.0527 C.3       11 UNK         0.0225 
     49 N         -77.4675   24.0612  -74.4387 N.am      5 UNK        -0.4615 
     50 C         -77.9764   22.9742  -75.0324 C.2       4 UNK         0.5053 
     51 O         -77.2948   22.0143  -75.3925 O.2       4 UNK        -0.5105 
     52 CA        -79.4812   22.9926  -75.3268 C.3       4 UNK         0.0263 
     53 CB        -80.2989   22.8559  -74.0304 C.3       4 UNK        -0.1981 
     54 N         -79.8409   24.2344  -76.0110 N.am      4 UNK        -0.4224 
     55 C         -79.8622   24.3963  -77.3423 C.2       3 UNK         0.4895 
     56 O         -79.6639   23.4861  -78.1476 O.2       3 UNK        -0.5091 
     57 CA        -80.1542   25.8136  -77.8728 C.3       3 UNK         0.0250 
     58 CB        -81.6628   26.0021  -78.1032 C.3       3 UNK        -0.1996 
     59 N         -79.6689   26.8656  -76.9774 N.am      3 UNK        -0.4254 
     60 C         -78.3753   27.1543  -76.7756 C.2       2 UNK         0.5004 
     61 O         -77.4596   26.6646  -77.4328 O.2       2 UNK        -0.5226 
     62 CA        -78.0357   28.1409  -75.6422 C.3       2 UNK         0.0269 
     63 CB        -77.6761   29.5173  -76.2248 C.3       2 UNK        -0.1926 
     64 N         -79.0980   28.3173  -74.6449 N.am      2 UNK        -0.4687 
     65 C         -79.6227   27.3667  -73.8596 C.2       1 UNK         0.5165 
     66 O         -79.2780   26.1851  -73.9103 O.2       1 UNK        -0.5079 
     67 H67       -83.7372   30.7811  -74.4798 H         1 UNK         0.0900 
     68 H68       -83.0643   30.1564  -75.9878 H         1 UNK         0.0900 
     69 H69       -83.9926   29.0933  -74.9280 H         1 UNK         0.0900 
     70 H70       -82.6941   27.7139  -73.7410 H         1 UNK         0.2959 
     71 H71       -80.3329   28.6409  -72.3422 H         1 UNK         0.1079 
     72 H72       -80.3541   26.1148  -71.5666 H         1 UNK         0.0837 
     73 H73       -81.8730   26.0034  -72.3933 H         1 UNK         0.0837 
     74 H74       -80.9067   26.3472  -68.6738 H         1 UNK         0.0685 
     75 H75       -81.0631   28.0535  -68.3471 H         1 UNK         0.0685 
     76 H76       -78.7559   25.5487  -69.2009 H         1 UNK         0.1434 
     77 H77       -75.7769   28.0648  -70.9195 H         1 UNK         0.1329 
     78 H78       -79.6963   29.6322  -70.0982 H         1 UNK         0.1335 
     79 H79       -77.8366   31.1643  -70.6272 H         1 UNK         0.0680 
     80 H80       -77.8133   30.4248  -72.2076 H         1 UNK         0.0680 
     81 H81       -75.8555   29.0977  -73.0293 H         1 UNK         0.1032 
     82 H82       -74.2428   29.0924  -72.3683 H         1 UNK         0.1032 
     83 H83       -75.3381   31.1852  -74.3174 H         1 UNK         0.0461 
     84 H84       -74.2608   33.1366  -73.9358 H         1 UNK         0.3453 
     85 H85       -72.5759   33.2610  -73.5043 H         1 UNK         0.3453 
     86 H86       -74.2375   28.5926  -74.7821 H         1 UNK         0.2984 
     87 H87       -74.5076   28.1140  -77.4349 H         1 UNK         0.0554 
     88 H88       -73.5534   29.6021  -79.1430 H         1 UNK         0.0847 
     89 H89       -72.6252   28.1113  -79.0923 H         1 UNK         0.0847 
     90 H90       -71.9806   29.5821  -78.3621 H         1 UNK         0.0847 
     91 H91       -73.2849   26.8256  -76.1382 H         1 UNK         0.3141 
     92 H92       -69.9570   26.8258  -74.8923 H         1 UNK         0.0743 
     93 H93       -71.1953   26.2013  -72.8342 H         1 UNK         0.0784 
     94 H94       -71.3499   27.9246  -73.1382 H         1 UNK         0.0784 
     95 H95       -72.6936   26.8508  -73.4984 H         1 UNK         0.0784 
     96 H96       -72.3276   25.0742  -75.1830 H         1 UNK         0.3213 
     97 H97       -70.9009   23.2220  -77.8459 H         1 UNK         0.0855 
     98 H98       -71.4347   22.3541  -74.9483 H         1 UNK         0.0814 
     99 H99       -69.9359   22.1019  -75.8306 H         1 UNK         0.0814 
    100 H100      -71.4017   21.2939  -76.3584 H         1 UNK         0.0814 
    101 H101      -73.3666   23.0209  -76.3799 H         1 UNK         0.3105 
    102 H102      -75.1431   25.5446  -77.9717 H         1 UNK         0.0547 
    103 H103      -75.4480   22.5941  -78.7389 H         1 UNK         0.0837 
    104 H104      -75.2487   23.9251  -79.8706 H         1 UNK         0.0837 
    105 H105      -76.6903   23.8388  -78.8728 H         1 UNK         0.0837 
    106 H106      -76.0873   23.3334  -76.4572 H         1 UNK         0.3020 
    107 H107      -75.6050   23.3084  -73.8679 H         1 UNK         0.1245 
    108 H108      -76.4059   26.1294  -72.9896 H         1 UNK         0.0781 
    109 H109      -74.8450   25.4017  -72.6627 H         1 UNK         0.0781 
    110 H110      -75.1510   25.8939  -70.1585 H         1 UNK         0.0836 
    111 H111      -76.2262   25.0330  -69.0889 H         1 UNK         0.0836 
    112 H112      -78.0997   24.8184  -74.1878 H         1 UNK         0.3022 
    113 H113      -79.7147   22.1368  -75.9642 H         1 UNK         0.0747 
    114 H114      -81.3687   22.8347  -74.2393 H         1 UNK         0.0793 
    115 H115      -80.0518   21.9286  -73.5115 H         1 UNK         0.0793 
    116 H116      -80.1116   23.6759  -73.3360 H         1 UNK         0.0793 
    117 H117      -79.9447   25.0508  -75.4192 H         1 UNK         0.3047 
    118 H118      -79.6436   25.9189  -78.8331 H         1 UNK         0.0822 
    119 H119      -81.8787   26.9757  -78.5442 H         1 UNK         0.0807 
    120 H120      -82.2287   25.9201  -77.1739 H         1 UNK         0.0807 
    121 H121      -82.0494   25.2457  -78.7880 H         1 UNK         0.0807 
    122 H122      -80.3558   27.3432  -76.4127 H         1 UNK         0.2946 
    123 H123      -77.1589   27.7392  -75.1283 H         1 UNK         0.1144 
    124 H124      -77.3171   30.1951  -75.4505 H         1 UNK         0.0793 
    125 H125      -78.5349   29.9861  -76.7081 H         1 UNK         0.0793 
    126 H126      -76.8881   29.4341  -76.9744 H         1 UNK         0.0793 
    127 H127      -79.5040   29.2464  -74.5685 H         1 UNK         0.2896 
@<TRIPOS>BOND
     1    1    2 1    
     2    1   67 1    
     3    1   68 1    
     4    1   69 1    
     5    2    3 2    
     6    2    4 am   BACKBONE|DICT|INTERRES
     7    4    5 1    
     8    4   70 1    
     9    5    6 1    
    10    5   65 1    
    11    5   71 1    
    12    6    7 1    
    13    6   72 1    
    14    6   73 1    
    15    7    8 1    
    16    8    9 1    
    17    8   74 1    
    18    8   75 1    
    19    9   10 ar   
    20    9   14 ar   
    21   10   11 ar   
    22   10   76 1    
    23   11   12 ar   
    24   11   48 1    
    25   12   13 ar   
    26   12   77 1    
    27   13   14 ar   
    28   13   15 1    
    29   14   78 1    
    30   15   16 1    
    31   15   79 1    
    32   15   80 1    
    33   16   17 1    
    34   17   18 1    
    35   17   81 1    
    36   17   82 1    
    37   18   19 1    
    38   18   22 1    
    39   18   83 1    
    40   19   20 am   BACKBONE|DICT|INTERRES
    41   19   21 2    
    42   20   84 1    
    43   20   85 1    
    44   22   23 am   BACKBONE|DICT|INTERRES
    45   22   86 1    
    46   23   24 2    
    47   23   25 1    
    48   25   26 1    
    49   25   27 1    
    50   25   87 1    
    51   26   88 1    
    52   26   89 1    
    53   26   90 1    
    54   27   28 am   BACKBONE|DICT|INTERRES
    55   27   91 1    
    56   28   29 2    
    57   28   30 1    
    58   30   31 1    
    59   30   32 1    
    60   30   92 1    
    61   31   93 1    
    62   31   94 1    
    63   31   95 1    
    64   32   33 am   BACKBONE|DICT|INTERRES
    65   32   96 1    
    66   33   34 2    
    67   33   35 1    
    68   35   36 1    
    69   35   37 1    
    70   35   97 1    
    71   36   98 1    
    72   36   99 1    
    73   36  100 1    
    74   37   38 am   BACKBONE|DICT|INTERRES
    75   37  101 1    
    76   38   39 2    
    77   38   40 1    
    78   40   41 1    
    79   40   42 1    
    80   40  102 1    
    81   41  103 1    
    82   41  104 1    
    83   41  105 1    
    84   42   43 am   BACKBONE|DICT|INTERRES
    85   42  106 1    
    86   43   44 2    
    87   43   45 1    
    88   45   46 1    
    89   45   49 1    
    90   45  107 1    
    91   46   47 1    
    92   46  108 1    
    93   46  109 1    
    94   47   48 1    
    95   48  110 1    
    96   48  111 1    
    97   49   50 am   BACKBONE|DICT|INTERRES
    98   49  112 1    
    99   50   51 2    
   100   50   52 1    
   101   52   53 1    
   102   52   54 1    
   103   52  113 1    
   104   53  114 1    
   105   53  115 1    
   106   53  116 1    
   107   54   55 am   BACKBONE|DICT|INTERRES
   108   54  117 1    
   109   55   56 2    
   110   55   57 1    
   111   57   58 1    
   112   57   59 1    
   113   57  118 1    
   114   58  119 1    
   115   58  120 1    
   116   58  121 1    
   117   59   60 am   BACKBONE|DICT|INTERRES
   118   59  122 1    
   119   60   61 2    
   120   60   62 1    
   121   62   63 1    
   122   62   64 1    
   123   62  123 1    
   124   63  124 1    
   125   63  125 1    
   126   63  126 1    
   127   64   65 am   BACKBONE|DICT|INTERRES
   128   64  127 1    
   129   65   66 2    
@<TRIPOS>SUBSTRUCTURE
     1 UNK         1 GROUP             0       ****    0 ROOT    
