@<TRIPOS>MOLECULE
3R135
127   129    1
SMALL
USER_CHARGES


@<TRIPOS>ATOM
      1 CA        -77.8813   28.6326  -75.2110 C.3       0 UNK        -0.1998 
      2 C         -78.5929   29.9469  -74.9017 C.2       0 UNK         0.4909 
      3 O         -78.1992   30.9842  -75.4312 O.2       0 UNK        -0.5240 
      4 N         -79.6291   29.9682  -74.0513 N.am      1 UNK        -0.4739 
      5 CA        -80.3135   28.8177  -73.4494 C.3       1 UNK         0.0864 
      6 C6        -81.2506   29.2894  -72.3079 C.3       11 UNK        -0.0881 
      7 S7        -81.6640   27.9602  -71.1279 S.3       11 UNK        -0.2682 
      8 C8        -80.5959   28.3735  -69.7102 C.3       11 UNK         0.0289 
      9 C9        -79.1306   28.1066  -70.0187 C.ar      11 UNK        -0.0687 
     10 C10       -78.6452   26.7966  -70.0018 C.ar      11 UNK        -0.0823 
     11 C11       -77.3123   26.5301  -70.3254 C.ar      11 UNK        -0.0830 
     12 C12       -76.4515   27.5899  -70.6259 C.ar      11 UNK        -0.1021 
     13 C13       -76.9261   28.9039  -70.6518 C.ar      11 UNK        -0.0753 
     14 C14       -78.2667   29.1576  -70.3433 C.ar      11 UNK        -0.0933 
     15 C15       -75.9973   30.0411  -71.0493 C.3       11 UNK         0.0166 
     16 S16       -75.5662   29.9279  -72.8134 S.3       11 UNK        -0.2615 
     17 C17       -75.0444   31.6379  -73.1899 C.3       11 UNK        -0.0865 
     18 CA        -73.5695   31.7587  -73.6544 C.3       10 UNK         0.0862 
     19 C         -72.5539   31.5997  -72.4831 C.2       10 UNK         0.5551 
     20 N         -71.5347   30.7540  -72.5809 N.am      10 UNK        -0.7319 
     21 O         -72.6842   32.2756  -71.4653 O.2       10 UNK        -0.5018 
     22 N         -73.3087   30.9043  -74.8222 N.am      10 UNK        -0.4509 
     23 C         -72.4222   31.1628  -75.7900 C.2       10 UNK         0.4899 
     24 O         -71.7729   32.2076  -75.8622 O.2       10 UNK        -0.4839 
     25 CA        -72.2260   30.0517  -76.8439 C.3       9 UNK         0.0222 
     26 CB        -70.9589   30.2593  -77.6999 C.3       9 UNK        -0.1966 
     27 N         -72.2382   28.6959  -76.2749 N.am      9 UNK        -0.4218 
     28 C         -71.4546   28.2223  -75.2906 C.2       9 UNK         0.5020 
     29 O         -70.6178   28.9007  -74.6937 O.2       9 UNK        -0.5274 
     30 CA        -71.6452   26.7546  -74.8716 C.3       8 UNK         0.0270 
     31 CB        -72.3808   26.6781  -73.5218 C.3       8 UNK        -0.1976 
     32 N         -72.3624   25.9612  -75.8755 N.am      8 UNK        -0.4313 
     33 C         -71.7931   25.4671  -76.9872 C.2       8 UNK         0.5041 
     34 O         -70.5984   25.6061  -77.2525 O.2       8 UNK        -0.5577 
     35 CA        -72.6806   24.6875  -77.9777 C.3       7 UNK         0.0284 
     36 CB        -72.4114   23.1780  -77.8652 C.3       7 UNK        -0.1958 
     37 N         -74.1139   24.9328  -77.8075 N.am      7 UNK        -0.4454 
     38 C         -74.7368   26.0753  -78.1350 C.2       7 UNK         0.5089 
     39 O         -74.1711   27.0340  -78.6605 O.2       7 UNK        -0.5125 
     40 CA        -76.2268   26.1945  -77.7559 C.3       6 UNK         0.0408 
     41 CB        -77.1180   25.7961  -78.9411 C.3       6 UNK        -0.1791 
     42 N         -76.5989   25.4036  -76.5761 N.am      6 UNK        -0.4762 
     43 C         -76.0365   25.5405  -75.3633 C.2       6 UNK         0.5007 
     44 O         -75.1942   26.4011  -75.1131 O.2       6 UNK        -0.5032 
     45 CA        -76.4186   24.5371  -74.2562 C.3       5 UNK         0.0783 
     46 C46       -77.3271   25.2223  -73.2150 C.3       11 UNK        -0.0857 
     47 S47       -77.6500   24.1722  -71.7551 S.3       11 UNK        -0.2512 
     48 C48       -76.8174   25.0932  -70.4163 C.3       11 UNK         0.0225 
     49 N         -77.0014   23.2978  -74.7798 N.am      5 UNK        -0.4615 
     50 C         -76.3501   22.4158  -75.5512 C.2       4 UNK         0.5053 
     51 O         -75.1712   22.5472  -75.8816 O.2       4 UNK        -0.5105 
     52 CA        -77.1441   21.2095  -76.0838 C.3       4 UNK         0.0263 
     53 CB        -76.8439   19.9606  -75.2398 C.3       4 UNK        -0.1981 
     54 N         -78.5964   21.4096  -76.1472 N.am      4 UNK        -0.4224 
     55 C         -79.2283   22.3587  -76.8532 C.2       3 UNK         0.4895 
     56 O         -78.6439   23.2128  -77.5231 O.2       3 UNK        -0.5091 
     57 CA        -80.7700   22.3704  -76.8041 C.3       3 UNK         0.0250 
     58 CB        -81.3873   21.3319  -75.8375 C.3       3 UNK        -0.1996 
     59 N         -81.3022   23.7087  -76.5214 N.am      3 UNK        -0.4254 
     60 C         -81.0435   24.4661  -75.4456 C.2       2 UNK         0.5004 
     61 O         -80.2976   24.1327  -74.5213 O.2       2 UNK        -0.5226 
     62 CA        -81.7735   25.8126  -75.3838 C.3       2 UNK         0.0269 
     63 CB        -83.2391   25.6243  -74.9486 C.3       2 UNK        -0.1926 
     64 N         -81.0959   26.7019  -74.4418 N.am      2 UNK        -0.4687 
     65 C         -81.0942   28.0362  -74.5292 C.2       1 UNK         0.5165 
     66 O         -81.6859   28.6578  -75.4159 O.2       1 UNK        -0.5079 
     67 H67       -78.4707   28.0156  -75.8882 H         1 UNK         0.0900 
     68 H68       -76.9211   28.8297  -75.6875 H         1 UNK         0.0900 
     69 H69       -77.6730   28.0705  -74.3024 H         1 UNK         0.0900 
     70 H70       -80.0785   30.8575  -73.8888 H         1 UNK         0.2959 
     71 H71       -79.5523   28.1653  -73.0171 H         1 UNK         0.1079 
     72 H72       -82.1775   29.7095  -72.7043 H         1 UNK         0.0837 
     73 H73       -80.7838   30.1032  -71.7511 H         1 UNK         0.0837 
     74 H74       -80.9002   27.7702  -68.8536 H         1 UNK         0.0685 
     75 H75       -80.7519   29.4135  -69.4194 H         1 UNK         0.0685 
     76 H76       -79.3164   25.9783  -69.7781 H         1 UNK         0.1434 
     77 H77       -75.4209   27.3930  -70.8890 H         1 UNK         0.1329 
     78 H78       -78.6419   30.1714  -70.3718 H         1 UNK         0.1335 
     79 H79       -75.0866   30.0084  -70.4496 H         1 UNK         0.0680 
     80 H80       -76.4733   31.0016  -70.8463 H         1 UNK         0.0680 
     81 H81       -75.2345   32.2933  -72.3383 H         1 UNK         0.1032 
     82 H82       -75.6988   32.0064  -73.9817 H         1 UNK         0.1032 
     83 H83       -73.4447   32.7930  -73.9806 H         1 UNK         0.0461 
     84 H84       -70.8900   30.6776  -71.8111 H         1 UNK         0.3453 
     85 H85       -71.3778   30.2058  -73.4198 H         1 UNK         0.3453 
     86 H86       -73.7871   30.0150  -74.8212 H         1 UNK         0.2984 
     87 H87       -73.0878   30.1097  -77.5104 H         1 UNK         0.0554 
     88 H88       -70.9918   31.2141  -78.2261 H         1 UNK         0.0847 
     89 H89       -70.8580   29.4790  -78.4543 H         1 UNK         0.0847 
     90 H90       -70.0548   30.2544  -77.0898 H         1 UNK         0.0847 
     91 H91       -72.9003   28.0551  -76.6923 H         1 UNK         0.3141 
     92 H92       -70.6519   26.3215  -74.7347 H         1 UNK         0.0743 
     93 H93       -71.7811   27.1300  -72.7305 H         1 UNK         0.0784 
     94 H94       -73.3312   27.2123  -73.5422 H         1 UNK         0.0784 
     95 H95       -72.5781   25.6467  -73.2295 H         1 UNK         0.0784 
     96 H96       -73.3610   25.8502  -75.7306 H         1 UNK         0.3213 
     97 H97       -72.4008   25.0081  -78.9837 H         1 UNK         0.0855 
     98 H98       -72.6491   22.7988  -76.8706 H         1 UNK         0.0814 
     99 H99       -71.3607   22.9541  -78.0552 H         1 UNK         0.0814 
    100 H100      -72.9982   22.6129  -78.5895 H         1 UNK         0.0814 
    101 H101      -74.6466   24.2042  -77.3468 H         1 UNK         0.3105 
    102 H102      -76.4199   27.2432  -77.5238 H         1 UNK         0.0547 
    103 H103      -78.1734   25.9443  -78.7122 H         1 UNK         0.0837 
    104 H104      -76.9798   24.7493  -79.2151 H         1 UNK         0.0837 
    105 H105      -76.8896   26.3976  -79.8220 H         1 UNK         0.0837 
    106 H106      -77.2775   24.6627  -76.7216 H         1 UNK         0.3020 
    107 H107      -75.4840   24.2678  -73.7587 H         1 UNK         0.1245 
    108 H108      -78.2839   25.4976  -73.6585 H         1 UNK         0.0781 
    109 H109      -76.8729   26.1600  -72.8966 H         1 UNK         0.0781 
    110 H110      -75.7393   25.0609  -70.5814 H         1 UNK         0.0836 
    111 H111      -76.9995   24.5872  -69.4673 H         1 UNK         0.0836 
    112 H112      -77.9767   23.1386  -74.5624 H         1 UNK         0.3022 
    113 H113      -76.7975   21.0256  -77.1028 H         1 UNK         0.0747 
    114 H114      -77.3138   19.0720  -75.6620 H         1 UNK         0.0793 
    115 H115      -75.7710   19.7666  -75.1970 H         1 UNK         0.0793 
    116 H116      -77.1955   20.0733  -74.2134 H         1 UNK         0.0793 
    117 H117      -79.1616   20.7657  -75.6131 H         1 UNK         0.3047 
    118 H118      -81.0997   22.1166  -77.8127 H         1 UNK         0.0822 
    119 H119      -82.4762   21.3773  -75.8630 H         1 UNK         0.0807 
    120 H120      -81.0793   21.4962  -74.8039 H         1 UNK         0.0807 
    121 H121      -81.1108   20.3137  -76.1143 H         1 UNK         0.0807 
    122 H122      -81.9089   24.0874  -77.2354 H         1 UNK         0.2946 
    123 H123      -81.7436   26.2530  -76.3836 H         1 UNK         0.1144 
    124 H124      -83.3073   25.1915  -73.9497 H         1 UNK         0.0793 
    125 H125      -83.7732   24.9608  -75.6298 H         1 UNK         0.0793 
    126 H126      -83.7757   26.5732  -74.9382 H         1 UNK         0.0793 
    127 H127      -80.5820   26.2262  -73.7102 H         1 UNK         0.2896 
@<TRIPOS>BOND
     1    1    2 1    
     2    1   67 1    
     3    1   68 1    
     4    1   69 1    
     5    2    3 2    
     6    2    4 am   BACKBONE|DICT|INTERRES
     7    4    5 1    
     8    4   70 1    
     9    5    6 1    
    10    5   65 1    
    11    5   71 1    
    12    6    7 1    
    13    6   72 1    
    14    6   73 1    
    15    7    8 1    
    16    8    9 1    
    17    8   74 1    
    18    8   75 1    
    19    9   10 ar   
    20    9   14 ar   
    21   10   11 ar   
    22   10   76 1    
    23   11   12 ar   
    24   11   48 1    
    25   12   13 ar   
    26   12   77 1    
    27   13   14 ar   
    28   13   15 1    
    29   14   78 1    
    30   15   16 1    
    31   15   79 1    
    32   15   80 1    
    33   16   17 1    
    34   17   18 1    
    35   17   81 1    
    36   17   82 1    
    37   18   19 1    
    38   18   22 1    
    39   18   83 1    
    40   19   20 am   BACKBONE|DICT|INTERRES
    41   19   21 2    
    42   20   84 1    
    43   20   85 1    
    44   22   23 am   BACKBONE|DICT|INTERRES
    45   22   86 1    
    46   23   24 2    
    47   23   25 1    
    48   25   26 1    
    49   25   27 1    
    50   25   87 1    
    51   26   88 1    
    52   26   89 1    
    53   26   90 1    
    54   27   28 am   BACKBONE|DICT|INTERRES
    55   27   91 1    
    56   28   29 2    
    57   28   30 1    
    58   30   31 1    
    59   30   32 1    
    60   30   92 1    
    61   31   93 1    
    62   31   94 1    
    63   31   95 1    
    64   32   33 am   BACKBONE|DICT|INTERRES
    65   32   96 1    
    66   33   34 2    
    67   33   35 1    
    68   35   36 1    
    69   35   37 1    
    70   35   97 1    
    71   36   98 1    
    72   36   99 1    
    73   36  100 1    
    74   37   38 am   BACKBONE|DICT|INTERRES
    75   37  101 1    
    76   38   39 2    
    77   38   40 1    
    78   40   41 1    
    79   40   42 1    
    80   40  102 1    
    81   41  103 1    
    82   41  104 1    
    83   41  105 1    
    84   42   43 am   BACKBONE|DICT|INTERRES
    85   42  106 1    
    86   43   44 2    
    87   43   45 1    
    88   45   46 1    
    89   45   49 1    
    90   45  107 1    
    91   46   47 1    
    92   46  108 1    
    93   46  109 1    
    94   47   48 1    
    95   48  110 1    
    96   48  111 1    
    97   49   50 am   BACKBONE|DICT|INTERRES
    98   49  112 1    
    99   50   51 2    
   100   50   52 1    
   101   52   53 1    
   102   52   54 1    
   103   52  113 1    
   104   53  114 1    
   105   53  115 1    
   106   53  116 1    
   107   54   55 am   BACKBONE|DICT|INTERRES
   108   54  117 1    
   109   55   56 2    
   110   55   57 1    
   111   57   58 1    
   112   57   59 1    
   113   57  118 1    
   114   58  119 1    
   115   58  120 1    
   116   58  121 1    
   117   59   60 am   BACKBONE|DICT|INTERRES
   118   59  122 1    
   119   60   61 2    
   120   60   62 1    
   121   62   63 1    
   122   62   64 1    
   123   62  123 1    
   124   63  124 1    
   125   63  125 1    
   126   63  126 1    
   127   64   65 am   BACKBONE|DICT|INTERRES
   128   64  127 1    
   129   65   66 2    
@<TRIPOS>SUBSTRUCTURE
     1 UNK         1 GROUP             0       ****    0 ROOT    
