@<TRIPOS>MOLECULE
3R135
127   129    1
SMALL
USER_CHARGES


@<TRIPOS>ATOM
      1 CA        -82.3838   22.7211  -73.5290 C.3       0 UNK        -0.1998 
      2 C         -81.2639   22.9095  -72.5094 C.2       0 UNK         0.4909 
      3 O         -80.6000   21.9370  -72.1578 O.2       0 UNK        -0.5240 
      4 N         -81.0205   24.1230  -71.9974 N.am      1 UNK        -0.4739 
      5 CA        -81.6276   25.4004  -72.3843 C.3       1 UNK         0.0864 
      6 C6        -81.5272   26.4573  -71.2501 C.3       11 UNK        -0.0881 
      7 S7        -79.8881   26.5726  -70.4384 S.3       11 UNK        -0.2682 
      8 C8        -79.8980   28.2822  -69.8130 C.3       11 UNK         0.0289 
      9 C9        -78.9087   29.1597  -70.5656 C.ar      11 UNK        -0.0687 
     10 C10       -79.2279   29.6614  -71.8312 C.ar      11 UNK        -0.0823 
     11 C11       -78.3249   30.4814  -72.5163 C.ar      11 UNK        -0.0830 
     12 C12       -77.1016   30.8046  -71.9241 C.ar      11 UNK        -0.1021 
     13 C13       -76.7667   30.3004  -70.6655 C.ar      11 UNK        -0.0753 
     14 C14       -77.6755   29.4815  -69.9886 C.ar      11 UNK        -0.0933 
     15 C15       -75.4259   30.6503  -70.0374 C.3       11 UNK         0.0166 
     16 S16       -74.2896   29.2284  -69.9849 S.3       11 UNK        -0.2615 
     17 C17       -74.0087   28.8721  -71.7563 C.3       11 UNK        -0.0865 
     18 CA        -72.8595   29.6928  -72.4006 C.3       10 UNK         0.0862 
     19 C         -71.4833   29.4073  -71.7339 C.2       10 UNK         0.5551 
     20 N         -70.9014   30.3846  -71.0519 N.am      10 UNK        -0.7319 
     21 O         -70.9619   28.2969  -71.8066 O.2       10 UNK        -0.5018 
     22 N         -72.8159   29.4357  -73.8456 N.am      10 UNK        -0.4509 
     23 C         -72.0523   30.0811  -74.7389 C.2       10 UNK         0.4899 
     24 O         -71.4004   31.0941  -74.4811 O.2       10 UNK        -0.4839 
     25 CA        -72.0170   29.4735  -76.1581 C.3       9 UNK         0.0222 
     26 CB        -70.8335   29.9778  -77.0122 C.3       9 UNK        -0.1966 
     27 N         -72.0818   28.0030  -76.1243 N.am      9 UNK        -0.4218 
     28 C         -71.1711   27.1764  -75.5827 C.2       9 UNK         0.5020 
     29 O         -70.0545   27.5351  -75.2066 O.2       9 UNK        -0.5274 
     30 CA        -71.5733   25.7097  -75.3665 C.3       8 UNK         0.0270 
     31 CB        -71.9886   25.4924  -73.9012 C.3       8 UNK        -0.1976 
     32 N         -72.6551   25.2512  -76.2415 N.am      8 UNK        -0.4313 
     33 C         -72.4506   24.7146  -77.4516 C.2       8 UNK         0.5041 
     34 O         -71.3489   24.6633  -78.0011 O.2       8 UNK        -0.5577 
     35 CA        -73.6681   24.0931  -78.1543 C.3       7 UNK         0.0284 
     36 CB        -74.0791   22.7791  -77.4693 C.3       7 UNK        -0.1958 
     37 N         -74.8163   24.9964  -78.2229 N.am      7 UNK        -0.4454 
     38 C         -74.8721   26.0835  -79.0046 C.2       7 UNK         0.5089 
     39 O         -73.9636   26.4363  -79.7574 O.2       7 UNK        -0.5125 
     40 CA        -76.1594   26.9234  -78.9416 C.3       6 UNK         0.0408 
     41 CB        -77.2367   26.3277  -79.8614 C.3       6 UNK        -0.1791 
     42 N         -76.7002   27.0687  -77.5890 N.am      6 UNK        -0.4762 
     43 C         -76.0630   27.6643  -76.5698 C.2       6 UNK         0.5007 
     44 O         -74.9317   28.1409  -76.6503 O.2       6 UNK        -0.5032 
     45 CA        -76.7893   27.6704  -75.2111 C.3       5 UNK         0.0783 
     46 C46       -78.0141   28.6186  -75.2240 C.3       11 UNK        -0.0857 
     47 S47       -77.5474   30.3802  -75.1794 S.3       11 UNK        -0.2512 
     48 C48       -78.6655   31.0273  -73.8950 C.3       11 UNK         0.0225 
     49 N         -77.1606   26.3148  -74.8003 N.am      5 UNK        -0.4615 
     50 C         -76.3317   25.2668  -74.6913 C.2       4 UNK         0.5053 
     51 O         -75.1133   25.3270  -74.8506 O.2       4 UNK        -0.5105 
     52 CA        -76.9855   23.9047  -74.4203 C.3       4 UNK         0.0263 
     53 CB        -77.2784   23.7246  -72.9222 C.3       4 UNK        -0.1981 
     54 N         -78.2144   23.7300  -75.1983 N.am      4 UNK        -0.4224 
     55 C         -78.2543   23.6038  -76.5334 C.2       3 UNK         0.4895 
     56 O         -77.2540   23.5737  -77.2499 O.2       3 UNK        -0.5091 
     57 CA        -79.6480   23.5396  -77.1818 C.3       3 UNK         0.0250 
     58 CB        -80.2547   22.1351  -77.0299 C.3       3 UNK        -0.1996 
     59 N         -80.5722   24.5380  -76.6377 N.am      3 UNK        -0.4254 
     60 C         -80.4169   25.8636  -76.7642 C.2       2 UNK         0.5004 
     61 O         -79.5102   26.3868  -77.4105 O.2       2 UNK        -0.5226 
     62 CA        -81.4137   26.7588  -76.0032 C.3       2 UNK         0.0269 
     63 CB        -82.6558   27.0306  -76.8662 C.3       2 UNK        -0.1926 
     64 N         -81.8316   26.2364  -74.6931 N.am      2 UNK        -0.4687 
     65 C         -80.9970   25.9053  -73.6961 C.2       1 UNK         0.5165 
     66 O         -79.7717   25.9650  -73.7936 O.2       1 UNK        -0.5079 
     67 H67       -82.4606   21.6731  -73.8187 H         1 UNK         0.0900 
     68 H68       -82.2022   23.2981  -74.4327 H         1 UNK         0.0900 
     69 H69       -83.3447   23.0152  -73.1080 H         1 UNK         0.0900 
     70 H70       -80.2660   24.2215  -71.3323 H         1 UNK         0.2959 
     71 H71       -82.6916   25.2361  -72.5636 H         1 UNK         0.1079 
     72 H72       -81.8265   27.4401  -71.6196 H         1 UNK         0.0837 
     73 H73       -82.2497   26.2095  -70.4709 H         1 UNK         0.0837 
     74 H74       -79.6496   28.2608  -68.7509 H         1 UNK         0.0685 
     75 H75       -80.8983   28.7127  -69.8750 H         1 UNK         0.0685 
     76 H76       -80.1776   29.4074  -72.2814 H         1 UNK         0.1434 
     77 H77       -76.4040   31.4389  -72.4544 H         1 UNK         0.1329 
     78 H78       -77.4175   29.0923  -69.0131 H         1 UNK         0.1335 
     79 H79       -74.9464   31.4716  -70.5723 H         1 UNK         0.0680 
     80 H80       -75.5905   31.0055  -69.0192 H         1 UNK         0.0680 
     81 H81       -73.8045   27.8037  -71.8497 H         1 UNK         0.1032 
     82 H82       -74.9382   29.0367  -72.3015 H         1 UNK         0.1032 
     83 H83       -73.0958   30.7515  -72.2763 H         1 UNK         0.0461 
     84 H84       -71.3269   31.2958  -70.9849 H         1 UNK         0.3453 
     85 H85       -70.0157   30.2103  -70.6038 H         1 UNK         0.3453 
     86 H86       -73.2966   28.6084  -74.1629 H         1 UNK         0.2984 
     87 H87       -72.9295   29.8101  -76.6506 H         1 UNK         0.0554 
     88 H88       -70.8300   29.5139  -77.9983 H         1 UNK         0.0847 
     89 H89       -69.8717   29.7747  -76.5410 H         1 UNK         0.0847 
     90 H90       -70.8956   31.0562  -77.1622 H         1 UNK         0.0847 
     91 H91       -72.9783   27.6184  -76.4078 H         1 UNK         0.3141 
     92 H92       -70.6854   25.0999  -75.5488 H         1 UNK         0.0743 
     93 H93       -71.1776   25.7600  -73.2221 H         1 UNK         0.0784 
     94 H94       -72.8504   26.1022  -73.6292 H         1 UNK         0.0784 
     95 H95       -72.2418   24.4497  -73.7094 H         1 UNK         0.0784 
     96 H96       -73.5960   25.2562  -75.8463 H         1 UNK         0.3213 
     97 H97       -73.3698   23.8538  -79.1775 H         1 UNK         0.0855 
     98 H98       -74.4388   22.9461  -76.4536 H         1 UNK         0.0814 
     99 H99       -73.2366   22.0888  -77.4090 H         1 UNK         0.0814 
    100 H100      -74.8709   22.2753  -78.0239 H         1 UNK         0.0814 
    101 H101      -75.6353   24.7436  -77.6782 H         1 UNK         0.3105 
    102 H102      -75.9182   27.9242  -79.3057 H         1 UNK         0.0547 
    103 H103      -78.1200   26.9653  -79.9015 H         1 UNK         0.0837 
    104 H104      -76.8662   26.2215  -80.8818 H         1 UNK         0.0837 
    105 H105      -77.5541   25.3405  -79.5229 H         1 UNK         0.0837 
    106 H106      -77.6419   26.7124  -77.4367 H         1 UNK         0.3020 
    107 H107      -76.0821   28.0323  -74.4622 H         1 UNK         0.1245 
    108 H108      -78.6500   28.4028  -74.3650 H         1 UNK         0.0781 
    109 H109      -78.6402   28.4561  -76.1010 H         1 UNK         0.0781 
    110 H110      -78.5887   32.1153  -73.8756 H         1 UNK         0.0836 
    111 H111      -79.6972   30.7981  -74.1667 H         1 UNK         0.0836 
    112 H112      -78.1437   26.1649  -74.5820 H         1 UNK         0.3022 
    113 H113      -76.2808   23.1281  -74.7245 H         1 UNK         0.0747 
    114 H114      -77.7199   22.7490  -72.7179 H         1 UNK         0.0793 
    115 H115      -76.3603   23.7943  -72.3374 H         1 UNK         0.0793 
    116 H116      -77.9607   24.4865  -72.5438 H         1 UNK         0.0793 
    117 H117      -79.0829   23.8205  -74.6925 H         1 UNK         0.3047 
    118 H118      -79.5248   23.7449  -78.2476 H         1 UNK         0.0822 
    119 H119      -79.5920   21.3786  -77.4529 H         1 UNK         0.0807 
    120 H120      -81.2079   22.0557  -77.5529 H         1 UNK         0.0807 
    121 H121      -80.4214   21.8726  -75.9845 H         1 UNK         0.0807 
    122 H122      -81.3647   24.1986  -76.1154 H         1 UNK         0.2946 
    123 H123      -80.9133   27.7123  -75.8241 H         1 UNK         0.1144 
    124 H124      -82.3738   27.4375  -77.8386 H         1 UNK         0.0793 
    125 H125      -83.3166   27.7579  -76.3941 H         1 UNK         0.0793 
    126 H126      -83.2304   26.1214  -77.0478 H         1 UNK         0.0793 
    127 H127      -82.8282   26.1685  -74.5411 H         1 UNK         0.2896 
@<TRIPOS>BOND
     1    1    2 1    
     2    1   67 1    
     3    1   68 1    
     4    1   69 1    
     5    2    3 2    
     6    2    4 am   BACKBONE|DICT|INTERRES
     7    4    5 1    
     8    4   70 1    
     9    5    6 1    
    10    5   65 1    
    11    5   71 1    
    12    6    7 1    
    13    6   72 1    
    14    6   73 1    
    15    7    8 1    
    16    8    9 1    
    17    8   74 1    
    18    8   75 1    
    19    9   10 ar   
    20    9   14 ar   
    21   10   11 ar   
    22   10   76 1    
    23   11   12 ar   
    24   11   48 1    
    25   12   13 ar   
    26   12   77 1    
    27   13   14 ar   
    28   13   15 1    
    29   14   78 1    
    30   15   16 1    
    31   15   79 1    
    32   15   80 1    
    33   16   17 1    
    34   17   18 1    
    35   17   81 1    
    36   17   82 1    
    37   18   19 1    
    38   18   22 1    
    39   18   83 1    
    40   19   20 am   BACKBONE|DICT|INTERRES
    41   19   21 2    
    42   20   84 1    
    43   20   85 1    
    44   22   23 am   BACKBONE|DICT|INTERRES
    45   22   86 1    
    46   23   24 2    
    47   23   25 1    
    48   25   26 1    
    49   25   27 1    
    50   25   87 1    
    51   26   88 1    
    52   26   89 1    
    53   26   90 1    
    54   27   28 am   BACKBONE|DICT|INTERRES
    55   27   91 1    
    56   28   29 2    
    57   28   30 1    
    58   30   31 1    
    59   30   32 1    
    60   30   92 1    
    61   31   93 1    
    62   31   94 1    
    63   31   95 1    
    64   32   33 am   BACKBONE|DICT|INTERRES
    65   32   96 1    
    66   33   34 2    
    67   33   35 1    
    68   35   36 1    
    69   35   37 1    
    70   35   97 1    
    71   36   98 1    
    72   36   99 1    
    73   36  100 1    
    74   37   38 am   BACKBONE|DICT|INTERRES
    75   37  101 1    
    76   38   39 2    
    77   38   40 1    
    78   40   41 1    
    79   40   42 1    
    80   40  102 1    
    81   41  103 1    
    82   41  104 1    
    83   41  105 1    
    84   42   43 am   BACKBONE|DICT|INTERRES
    85   42  106 1    
    86   43   44 2    
    87   43   45 1    
    88   45   46 1    
    89   45   49 1    
    90   45  107 1    
    91   46   47 1    
    92   46  108 1    
    93   46  109 1    
    94   47   48 1    
    95   48  110 1    
    96   48  111 1    
    97   49   50 am   BACKBONE|DICT|INTERRES
    98   49  112 1    
    99   50   51 2    
   100   50   52 1    
   101   52   53 1    
   102   52   54 1    
   103   52  113 1    
   104   53  114 1    
   105   53  115 1    
   106   53  116 1    
   107   54   55 am   BACKBONE|DICT|INTERRES
   108   54  117 1    
   109   55   56 2    
   110   55   57 1    
   111   57   58 1    
   112   57   59 1    
   113   57  118 1    
   114   58  119 1    
   115   58  120 1    
   116   58  121 1    
   117   59   60 am   BACKBONE|DICT|INTERRES
   118   59  122 1    
   119   60   61 2    
   120   60   62 1    
   121   62   63 1    
   122   62   64 1    
   123   62  123 1    
   124   63  124 1    
   125   63  125 1    
   126   63  126 1    
   127   64   65 am   BACKBONE|DICT|INTERRES
   128   64  127 1    
   129   65   66 2    
@<TRIPOS>SUBSTRUCTURE
     1 UNK         1 GROUP             0       ****    0 ROOT    
