@<TRIPOS>MOLECULE
3R135
127   129    1
SMALL
USER_CHARGES


@<TRIPOS>ATOM
      1 CA        -80.9182   21.3438  -70.8479 C.3       0 UNK        -0.1998 
      2 C         -81.6069   22.6201  -71.3081 C.2       0 UNK         0.4909 
      3 O         -82.8097   22.6049  -71.5742 O.2       0 UNK        -0.5240 
      4 N         -80.8548   23.7247  -71.3946 N.am      1 UNK        -0.4739 
      5 CA        -81.3264   25.0190  -71.9005 C.3       1 UNK         0.0864 
      6 C6        -80.4510   26.1809  -71.3620 C.3       11 UNK        -0.0881 
      7 S7        -81.4117   27.7105  -71.1175 S.3       11 UNK        -0.2682 
      8 C8        -80.2839   28.6581  -70.0483 C.3       11 UNK         0.0289 
      9 C9        -78.9949   29.0220  -70.7707 C.ar      11 UNK        -0.0687 
     10 C10       -79.0104   29.9889  -71.7780 C.ar      11 UNK        -0.0823 
     11 C11       -77.8348   30.3356  -72.4476 C.ar      11 UNK        -0.0830 
     12 C12       -76.6326   29.7232  -72.0816 C.ar      11 UNK        -0.1021 
     13 C13       -76.6020   28.7293  -71.0957 C.ar      11 UNK        -0.0753 
     14 C14       -77.7909   28.3932  -70.4390 C.ar      11 UNK        -0.0933 
     15 C15       -75.3164   27.9973  -70.7076 C.3       11 UNK         0.0166 
     16 S16       -74.0356   27.9265  -72.0095 S.3       11 UNK        -0.2615 
     17 C17       -73.0538   29.4299  -71.6653 C.3       11 UNK        -0.0865 
     18 CA        -72.7080   30.2602  -72.9312 C.3       10 UNK         0.0862 
     19 C         -71.9075   31.5355  -72.5338 C.2       10 UNK         0.5551 
     20 N         -70.6334   31.6594  -72.8857 N.am      10 UNK        -0.7319 
     21 O         -72.4563   32.4267  -71.8907 O.2       10 UNK        -0.5018 
     22 N         -72.0879   29.4270  -73.9743 N.am      10 UNK        -0.4509 
     23 C         -71.9047   29.7746  -75.2529 C.2       10 UNK         0.4899 
     24 O         -72.1766   30.8895  -75.7000 O.2       10 UNK        -0.4839 
     25 CA        -71.3347   28.7120  -76.2156 C.3       9 UNK         0.0222 
     26 CB        -69.8149   28.8932  -76.3978 C.3       9 UNK        -0.1966 
     27 N         -71.6747   27.3132  -75.9021 N.am      9 UNK        -0.4218 
     28 C         -71.2913   26.5599  -74.8597 C.2       9 UNK         0.5020 
     29 O         -70.5806   26.9799  -73.9454 O.2       9 UNK        -0.5274 
     30 CA        -71.7842   25.1018  -74.8074 C.3       8 UNK         0.0270 
     31 CB        -72.3818   24.7546  -73.4322 C.3       8 UNK        -0.1976 
     32 N         -72.7726   24.7977  -75.8479 N.am      8 UNK        -0.4313 
     33 C         -72.4931   24.1596  -76.9924 C.2       8 UNK         0.5041 
     34 O         -71.3656   23.7733  -77.3035 O.2       8 UNK        -0.5577 
     35 CA        -73.6594   23.9081  -77.9626 C.3       7 UNK         0.0284 
     36 CB        -74.4718   22.6792  -77.5259 C.3       7 UNK        -0.1958 
     37 N         -74.5527   25.0567  -78.1357 N.am      7 UNK        -0.4454 
     38 C         -74.1951   26.2208  -78.6971 C.2       7 UNK         0.5089 
     39 O         -73.0467   26.4933  -79.0464 O.2       7 UNK        -0.5125 
     40 CA        -75.3086   27.2603  -78.8968 C.3       6 UNK         0.0408 
     41 CB        -76.2106   26.8860  -80.0843 C.3       6 UNK        -0.1791 
     42 N         -76.1148   27.4173  -77.6878 N.am      6 UNK        -0.4762 
     43 C         -75.7119   28.1068  -76.6107 C.2       6 UNK         0.5007 
     44 O         -74.6525   28.7278  -76.5654 O.2       6 UNK        -0.5032 
     45 CA        -76.6284   28.0699  -75.3692 C.3       5 UNK         0.0783 
     46 C46       -77.7020   29.1885  -75.4286 C.3       11 UNK        -0.0857 
     47 S47       -76.9978   30.8408  -75.0824 S.3       11 UNK        -0.2512 
     48 C48       -77.8805   31.3647  -73.5718 C.3       11 UNK         0.0225 
     49 N         -77.2308   26.7464  -75.1757 N.am      5 UNK        -0.4615 
     50 C         -76.5343   25.6219  -74.9405 C.2       4 UNK         0.5053 
     51 O         -75.3111   25.5876  -74.8192 O.2       4 UNK        -0.5105 
     52 CA        -77.3146   24.2951  -74.9047 C.3       4 UNK         0.0263 
     53 CB        -77.7247   23.9516  -73.4658 C.3       4 UNK        -0.1981 
     54 N         -78.4887   24.2912  -75.7827 N.am      4 UNK        -0.4224 
     55 C         -78.4349   24.4836  -77.1111 C.2       3 UNK         0.4895 
     56 O         -77.3784   24.5770  -77.7377 O.2       3 UNK        -0.5091 
     57 CA        -79.7602   24.6610  -77.8744 C.3       3 UNK         0.0250 
     58 CB        -80.1144   23.3723  -78.6325 C.3       3 UNK        -0.1996 
     59 N         -80.9007   25.0613  -77.0441 N.am      3 UNK        -0.4254 
     60 C         -80.9816   26.1625  -76.2818 C.2       2 UNK         0.5004 
     61 O         -80.0826   26.9999  -76.1878 O.2       2 UNK        -0.5226 
     62 CA        -82.2566   26.3289  -75.4309 C.3       2 UNK         0.0269 
     63 CB        -83.4462   25.4659  -75.9100 C.3       2 UNK        -0.1926 
     64 N         -82.0096   26.0877  -74.0023 N.am      2 UNK        -0.4687 
     65 C         -81.4160   25.0209  -73.4448 C.2       1 UNK         0.5165 
     66 O         -80.9381   24.0860  -74.0955 O.2       1 UNK        -0.5079 
     67 H67       -79.8607   21.5035  -70.6379 H         1 UNK         0.0900 
     68 H68       -80.9983   20.5771  -71.6180 H         1 UNK         0.0900 
     69 H69       -81.3911   20.9677  -69.9411 H         1 UNK         0.0900 
     70 H70       -79.8685   23.6657  -71.1880 H         1 UNK         0.2959 
     71 H71       -82.3449   25.1506  -71.5267 H         1 UNK         0.1079 
     72 H72       -80.0278   25.9128  -70.3923 H         1 UNK         0.0837 
     73 H73       -79.5989   26.3917  -72.0109 H         1 UNK         0.0837 
     74 H74       -80.7864   29.5716  -69.7270 H         1 UNK         0.0685 
     75 H75       -80.0773   28.0882  -69.1410 H         1 UNK         0.0685 
     76 H76       -79.9461   30.4612  -72.0455 H         1 UNK         0.1434 
     77 H77       -75.7281   30.0076  -72.5961 H         1 UNK         0.1329 
     78 H78       -77.7798   27.6352  -69.6676 H         1 UNK         0.1335 
     79 H79       -74.9043   28.4436  -69.8019 H         1 UNK         0.0680 
     80 H80       -75.5629   26.9657  -70.4511 H         1 UNK         0.0680 
     81 H81       -72.1394   29.1198  -71.1560 H         1 UNK         0.1032 
     82 H82       -73.5973   30.0534  -70.9526 H         1 UNK         0.1032 
     83 H83       -73.6461   30.6227  -73.3545 H         1 UNK         0.0461 
     84 H84       -70.1245   32.4893  -72.6251 H         1 UNK         0.3453 
     85 H85       -70.1817   30.9326  -73.4169 H         1 UNK         0.3453 
     86 H86       -71.7752   28.5049  -73.6896 H         1 UNK         0.2984 
     87 H87       -71.8016   28.9021  -77.1835 H         1 UNK         0.0554 
     88 H88       -69.4195   28.2021  -77.1422 H         1 UNK         0.0847 
     89 H89       -69.2691   28.7336  -75.4676 H         1 UNK         0.0847 
     90 H90       -69.5825   29.9030  -76.7385 H         1 UNK         0.0847 
     91 H91       -72.2882   26.8728  -76.5745 H         1 UNK         0.3141 
     92 H92       -70.8996   24.4760  -74.9406 H         1 UNK         0.0743 
     93 H93       -73.2546   25.3653  -73.2054 H         1 UNK         0.0784 
     94 H94       -72.6863   23.7091  -73.3859 H         1 UNK         0.0784 
     95 H95       -71.6567   24.9151  -72.6333 H         1 UNK         0.0784 
     96 H96       -73.7319   25.0806  -75.6462 H         1 UNK         0.3213 
     97 H97       -73.2266   23.6895  -78.9414 H         1 UNK         0.0855 
     98 H98       -74.8991   22.8113  -76.5330 H         1 UNK         0.0814 
     99 H99       -73.8411   21.7898  -77.4907 H         1 UNK         0.0814 
    100 H100      -75.2875   22.4718  -78.2189 H         1 UNK         0.0814 
    101 H101      -75.5336   24.9153  -77.9024 H         1 UNK         0.3105 
    102 H102      -74.8373   28.2178  -79.1298 H         1 UNK         0.0547 
    103 H103      -75.6261   26.7955  -81.0008 H         1 UNK         0.0837 
    104 H104      -76.7205   25.9347  -79.9310 H         1 UNK         0.0837 
    105 H105      -76.9700   27.6479  -80.2601 H         1 UNK         0.0837 
    106 H106      -76.9677   26.8775  -77.6307 H         1 UNK         0.3020 
    107 H107      -75.9907   28.2456  -74.4996 H         1 UNK         0.1245 
    108 H108      -78.4944   28.9835  -74.7074 H         1 UNK         0.0781 
    109 H109      -78.1980   29.2095  -76.4010 H         1 UNK         0.0781 
    110 H110      -78.9125   31.5932  -73.8429 H         1 UNK         0.0836 
    111 H111      -77.4429   32.2973  -73.2136 H         1 UNK         0.0836 
    112 H112      -78.2332   26.6876  -75.3227 H         1 UNK         0.3022 
    113 H113      -76.6468   23.5083  -75.2560 H         1 UNK         0.0747 
    114 H114      -78.2607   23.0034  -73.4188 H         1 UNK         0.0793 
    115 H115      -76.8477   23.8635  -72.8229 H         1 UNK         0.0793 
    116 H116      -78.3632   24.7224  -73.0389 H         1 UNK         0.0793 
    117 H117      -79.3974   24.2136  -75.3332 H         1 UNK         0.3047 
    118 H118      -79.5991   25.4555  -78.6058 H         1 UNK         0.0822 
    119 H119      -80.9913   23.5107  -79.2652 H         1 UNK         0.0807 
    120 H120      -80.3176   22.5460  -77.9499 H         1 UNK         0.0807 
    121 H121      -79.2945   23.0636  -79.2829 H         1 UNK         0.0807 
    122 H122      -81.6766   24.4160  -77.0120 H         1 UNK         0.2946 
    123 H123      -82.5459   27.3767  -75.5302 H         1 UNK         0.1144 
    124 H124      -83.6573   25.6332  -76.9674 H         1 UNK         0.0793 
    125 H125      -84.3541   25.7205  -75.3630 H         1 UNK         0.0793 
    126 H126      -83.2702   24.3990  -75.7671 H         1 UNK         0.0793 
    127 H127      -82.3003   26.8320  -73.3813 H         1 UNK         0.2896 
@<TRIPOS>BOND
     1    1    2 1    
     2    1   67 1    
     3    1   68 1    
     4    1   69 1    
     5    2    3 2    
     6    2    4 am   BACKBONE|DICT|INTERRES
     7    4    5 1    
     8    4   70 1    
     9    5    6 1    
    10    5   65 1    
    11    5   71 1    
    12    6    7 1    
    13    6   72 1    
    14    6   73 1    
    15    7    8 1    
    16    8    9 1    
    17    8   74 1    
    18    8   75 1    
    19    9   10 ar   
    20    9   14 ar   
    21   10   11 ar   
    22   10   76 1    
    23   11   12 ar   
    24   11   48 1    
    25   12   13 ar   
    26   12   77 1    
    27   13   14 ar   
    28   13   15 1    
    29   14   78 1    
    30   15   16 1    
    31   15   79 1    
    32   15   80 1    
    33   16   17 1    
    34   17   18 1    
    35   17   81 1    
    36   17   82 1    
    37   18   19 1    
    38   18   22 1    
    39   18   83 1    
    40   19   20 am   BACKBONE|DICT|INTERRES
    41   19   21 2    
    42   20   84 1    
    43   20   85 1    
    44   22   23 am   BACKBONE|DICT|INTERRES
    45   22   86 1    
    46   23   24 2    
    47   23   25 1    
    48   25   26 1    
    49   25   27 1    
    50   25   87 1    
    51   26   88 1    
    52   26   89 1    
    53   26   90 1    
    54   27   28 am   BACKBONE|DICT|INTERRES
    55   27   91 1    
    56   28   29 2    
    57   28   30 1    
    58   30   31 1    
    59   30   32 1    
    60   30   92 1    
    61   31   93 1    
    62   31   94 1    
    63   31   95 1    
    64   32   33 am   BACKBONE|DICT|INTERRES
    65   32   96 1    
    66   33   34 2    
    67   33   35 1    
    68   35   36 1    
    69   35   37 1    
    70   35   97 1    
    71   36   98 1    
    72   36   99 1    
    73   36  100 1    
    74   37   38 am   BACKBONE|DICT|INTERRES
    75   37  101 1    
    76   38   39 2    
    77   38   40 1    
    78   40   41 1    
    79   40   42 1    
    80   40  102 1    
    81   41  103 1    
    82   41  104 1    
    83   41  105 1    
    84   42   43 am   BACKBONE|DICT|INTERRES
    85   42  106 1    
    86   43   44 2    
    87   43   45 1    
    88   45   46 1    
    89   45   49 1    
    90   45  107 1    
    91   46   47 1    
    92   46  108 1    
    93   46  109 1    
    94   47   48 1    
    95   48  110 1    
    96   48  111 1    
    97   49   50 am   BACKBONE|DICT|INTERRES
    98   49  112 1    
    99   50   51 2    
   100   50   52 1    
   101   52   53 1    
   102   52   54 1    
   103   52  113 1    
   104   53  114 1    
   105   53  115 1    
   106   53  116 1    
   107   54   55 am   BACKBONE|DICT|INTERRES
   108   54  117 1    
   109   55   56 2    
   110   55   57 1    
   111   57   58 1    
   112   57   59 1    
   113   57  118 1    
   114   58  119 1    
   115   58  120 1    
   116   58  121 1    
   117   59   60 am   BACKBONE|DICT|INTERRES
   118   59  122 1    
   119   60   61 2    
   120   60   62 1    
   121   62   63 1    
   122   62   64 1    
   123   62  123 1    
   124   63  124 1    
   125   63  125 1    
   126   63  126 1    
   127   64   65 am   BACKBONE|DICT|INTERRES
   128   64  127 1    
   129   65   66 2    
@<TRIPOS>SUBSTRUCTURE
     1 UNK         1 GROUP             0       ****    0 ROOT    
