@<TRIPOS>MOLECULE
3R135
127   129    1
SMALL
USER_CHARGES


@<TRIPOS>ATOM
      1 CA        -83.6052   25.7310  -74.5066 C.3       0 UNK        -0.1998 
      2 C         -82.2399   26.3979  -74.4476 C.2       0 UNK         0.4909 
      3 O         -81.2255   25.7002  -74.4803 O.2       0 UNK        -0.5240 
      4 N         -82.2117   27.7378  -74.3716 N.am      1 UNK        -0.4739 
      5 CA        -81.0133   28.5883  -74.3002 C.3       1 UNK         0.0864 
      6 C6        -80.3226   28.5307  -72.9105 C.3       11 UNK        -0.0881 
      7 S7        -81.3107   29.2872  -71.5755 S.3       11 UNK        -0.2682 
      8 C8        -80.3670   28.8391  -70.0710 C.3       11 UNK         0.0289 
      9 C9        -78.8623   28.7676  -70.3079 C.ar      11 UNK        -0.0687 
     10 C10       -78.2142   27.5296  -70.3049 C.ar      11 UNK        -0.0823 
     11 C11       -76.8571   27.4331  -70.6273 C.ar      11 UNK        -0.0830 
     12 C12       -76.1469   28.5933  -70.9483 C.ar      11 UNK        -0.1021 
     13 C13       -76.7724   29.8466  -70.9134 C.ar      11 UNK        -0.0753 
     14 C14       -78.1300   29.9259  -70.5858 C.ar      11 UNK        -0.0933 
     15 C15       -76.0064   31.1124  -71.2802 C.3       11 UNK         0.0166 
     16 S16       -74.3876   31.2226  -70.4481 S.3       11 UNK        -0.2615 
     17 C17       -73.5941   32.5867  -71.3715 C.3       11 UNK        -0.0865 
     18 CA        -72.6772   32.1161  -72.5337 C.3       10 UNK         0.0862 
     19 C         -71.4134   31.3562  -72.0298 C.2       10 UNK         0.5551 
     20 N         -71.2281   30.0800  -72.3500 N.am      10 UNK        -0.7319 
     21 O         -70.5791   31.9450  -71.3466 O.2       10 UNK        -0.5018 
     22 N         -73.4464   31.4077  -73.5657 N.am      10 UNK        -0.4509 
     23 C         -73.0840   31.2829  -74.8453 C.2       10 UNK         0.4899 
     24 O         -72.0908   31.8164  -75.3429 O.2       10 UNK        -0.4839 
     25 CA        -73.9814   30.3828  -75.7106 C.3       9 UNK         0.0222 
     26 CB        -74.4028   31.0971  -77.0061 C.3       9 UNK        -0.1966 
     27 N         -73.3108   29.1278  -76.0479 N.am      9 UNK        -0.4218 
     28 C         -72.8674   28.2092  -75.1804 C.2       9 UNK         0.5020 
     29 O         -73.0071   28.2999  -73.9583 O.2       9 UNK        -0.5274 
     30 CA        -72.1684   26.9801  -75.7950 C.3       8 UNK         0.0270 
     31 CB        -71.5846   26.0394  -74.7251 C.3       8 UNK        -0.1976 
     32 N         -73.0716   26.2272  -76.6744 N.am      8 UNK        -0.4313 
     33 C         -73.4020   26.5956  -77.9228 C.2       8 UNK         0.5041 
     34 O         -72.9443   27.6081  -78.4580 O.2       8 UNK        -0.5577 
     35 CA        -74.4449   25.7604  -78.6913 C.3       7 UNK         0.0284 
     36 CB        -74.1069   25.6227  -80.1914 C.3       7 UNK        -0.1958 
     37 N         -74.7537   24.4643  -78.0801 N.am      7 UNK        -0.4454 
     38 C         -73.9733   23.3772  -78.0094 C.2       7 UNK         0.5089 
     39 O         -72.8445   23.3070  -78.4979 O.2       7 UNK        -0.5125 
     40 CA        -74.5596   22.1702  -77.2457 C.3       6 UNK         0.0408 
     41 CB        -73.4757   21.1560  -76.8233 C.3       6 UNK        -0.1791 
     42 N         -75.3871   22.5392  -76.0874 N.am      6 UNK        -0.4762 
     43 C         -75.0196   23.2899  -75.0351 C.2       6 UNK         0.5007 
     44 O         -73.9219   23.8400  -74.9546 O.2       6 UNK        -0.5032 
     45 CA        -76.0448   23.4604  -73.8952 C.3       5 UNK         0.0783 
     46 C46       -75.8776   24.8005  -73.1282 C.3       11 UNK        -0.0857 
     47 S47       -76.9664   24.8502  -71.6642 S.3       11 UNK        -0.2512 
     48 C48       -76.1563   26.0805  -70.5908 C.3       11 UNK         0.0225 
     49 N         -77.4090   23.3023  -74.4068 N.am      5 UNK        -0.4615 
     50 C         -78.2546   22.3137  -74.0934 C.2       4 UNK         0.5053 
     51 O         -77.9470   21.3510  -73.3900 O.2       4 UNK        -0.5105 
     52 CA        -79.6917   22.4102  -74.6405 C.3       4 UNK         0.0263 
     53 CB        -80.6841   22.6508  -73.4906 C.3       4 UNK        -0.1981 
     54 N         -79.8596   23.4662  -75.6445 N.am      4 UNK        -0.4224 
     55 C         -79.4784   23.3547  -76.9247 C.2       3 UNK         0.4895 
     56 O         -78.9798   22.3353  -77.4029 O.2       3 UNK        -0.5091 
     57 CA        -79.6378   24.6014  -77.8115 C.3       3 UNK         0.0250 
     58 CB        -81.0957   24.7551  -78.2733 C.3       3 UNK        -0.1996 
     59 N         -79.1974   25.8456  -77.1739 N.am      3 UNK        -0.4254 
     60 C         -77.9763   26.0929  -76.6840 C.2       2 UNK         0.5004 
     61 O         -77.0677   25.2646  -76.6790 O.2       2 UNK        -0.5226 
     62 CA        -77.7184   27.4750  -76.0600 C.3       2 UNK         0.0269 
     63 CB        -77.3669   28.5253  -77.1302 C.3       2 UNK        -0.1926 
     64 N         -78.7965   27.9319  -75.1736 N.am      2 UNK        -0.4687 
     65 C         -80.0534   28.2935  -75.4783 C.2       1 UNK         0.5165 
     66 O         -80.4852   28.3573  -76.6316 O.2       1 UNK        -0.5079 
     67 H67       -83.7184   25.0396  -73.6722 H         1 UNK         0.0900 
     68 H68       -84.4170   26.4566  -74.4597 H         1 UNK         0.0900 
     69 H69       -83.7058   25.1663  -75.4329 H         1 UNK         0.0900 
     70 H70       -83.0869   28.2424  -74.3744 H         1 UNK         0.2959 
     71 H71       -81.3510   29.6135  -74.4612 H         1 UNK         0.1079 
     72 H72       -79.3846   29.0870  -72.9377 H         1 UNK         0.0837 
     73 H73       -80.0787   27.5015  -72.6384 H         1 UNK         0.0837 
     74 H74       -80.7400   27.8820  -69.7031 H         1 UNK         0.0685 
     75 H75       -80.5779   29.5688  -69.2881 H         1 UNK         0.0685 
     76 H76       -78.7716   26.6312  -70.0765 H         1 UNK         0.1434 
     77 H77       -75.0999   28.5244  -71.2120 H         1 UNK         0.1329 
     78 H78       -78.6330   30.8833  -70.5894 H         1 UNK         0.1335 
     79 H79       -75.8773   31.1292  -72.3617 H         1 UNK         0.0680 
     80 H80       -76.5850   32.0015  -71.0241 H         1 UNK         0.0680 
     81 H81       -73.0204   33.1871  -70.6629 H         1 UNK         0.1032 
     82 H82       -74.3637   33.2578  -71.7559 H         1 UNK         0.1032 
     83 H83       -72.2915   33.0241  -73.0015 H         1 UNK         0.0461 
     84 H84       -70.4045   29.6045  -72.0189 H         1 UNK         0.3453 
     85 H85       -71.9191   29.5744  -72.8948 H         1 UNK         0.3453 
     86 H86       -74.2279   30.8662  -73.2296 H         1 UNK         0.2984 
     87 H87       -74.8864   30.1350  -75.1518 H         1 UNK         0.0554 
     88 H88       -75.0671   30.4776  -77.6080 H         1 UNK         0.0847 
     89 H89       -73.5419   31.3561  -77.6239 H         1 UNK         0.0847 
     90 H90       -74.9349   32.0230  -76.7847 H         1 UNK         0.0847 
     91 H91       -73.1509   28.9368  -77.0337 H         1 UNK         0.3141 
     92 H92       -71.3314   27.3491  -76.3916 H         1 UNK         0.0743 
     93 H93       -70.8217   26.5495  -74.1358 H         1 UNK         0.0784 
     94 H94       -71.1174   25.1634  -75.1751 H         1 UNK         0.0784 
     95 H95       -72.3489   25.6921  -74.0294 H         1 UNK         0.0784 
     96 H96       -73.4906   25.3922  -76.2767 H         1 UNK         0.3213 
     97 H97       -75.3718   26.3305  -78.6300 H         1 UNK         0.0855 
     98 H98       -73.1386   25.1477  -80.3496 H         1 UNK         0.0814 
     99 H99       -74.0662   26.6004  -80.6731 H         1 UNK         0.0814 
    100 H100      -74.8607   25.0366  -80.7169 H         1 UNK         0.0814 
    101 H101      -75.6435   24.4415  -77.5837 H         1 UNK         0.3105 
    102 H102      -75.2270   21.6671  -77.9470 H         1 UNK         0.0547 
    103 H103      -73.9114   20.2985  -76.3109 H         1 UNK         0.0837 
    104 H104      -72.7395   21.6070  -76.1570 H         1 UNK         0.0837 
    105 H105      -72.9371   20.7722  -77.6905 H         1 UNK         0.0837 
    106 H106      -76.3304   22.1744  -76.0881 H         1 UNK         0.3020 
    107 H107      -75.8178   22.6540  -73.1942 H         1 UNK         0.1245 
    108 H108      -76.1017   25.6529  -73.7710 H         1 UNK         0.0781 
    109 H109      -74.8458   24.9245  -72.7945 H         1 UNK         0.0781 
    110 H110      -75.1015   26.1759  -70.8519 H         1 UNK         0.0836 
    111 H111      -76.1796   25.7104  -69.5650 H         1 UNK         0.0836 
    112 H112      -77.7154   24.0210  -75.0501 H         1 UNK         0.3022 
    113 H113      -79.9322   21.4493  -75.1002 H         1 UNK         0.0747 
    114 H114      -81.7093   22.7138  -73.8557 H         1 UNK         0.0793 
    115 H115      -80.6470   21.8377  -72.7646 H         1 UNK         0.0793 
    116 H116      -80.4614   23.5750  -72.9555 H         1 UNK         0.0793 
    117 H117      -80.2716   24.3402  -75.3179 H         1 UNK         0.3047 
    118 H118      -79.0131   24.4541  -78.6950 H         1 UNK         0.0822 
    119 H119      -81.2011   25.5718  -78.9878 H         1 UNK         0.0807 
    120 H120      -81.7651   24.9553  -77.4357 H         1 UNK         0.0807 
    121 H121      -81.4486   23.8475  -78.7651 H         1 UNK         0.0807 
    122 H122      -79.8757   26.5995  -77.1124 H         1 UNK         0.2946 
    123 H123      -76.8405   27.3653  -75.4207 H         1 UNK         0.1144 
    124 H124      -77.1918   29.5024  -76.6804 H         1 UNK         0.0793 
    125 H125      -78.1567   28.6362  -77.8736 H         1 UNK         0.0793 
    126 H126      -76.4577   28.2479  -77.6636 H         1 UNK         0.0793 
    127 H127      -78.5740   27.8714  -74.1899 H         1 UNK         0.2896 
@<TRIPOS>BOND
     1    1    2 1    
     2    1   67 1    
     3    1   68 1    
     4    1   69 1    
     5    2    3 2    
     6    2    4 am   BACKBONE|DICT|INTERRES
     7    4    5 1    
     8    4   70 1    
     9    5    6 1    
    10    5   65 1    
    11    5   71 1    
    12    6    7 1    
    13    6   72 1    
    14    6   73 1    
    15    7    8 1    
    16    8    9 1    
    17    8   74 1    
    18    8   75 1    
    19    9   10 ar   
    20    9   14 ar   
    21   10   11 ar   
    22   10   76 1    
    23   11   12 ar   
    24   11   48 1    
    25   12   13 ar   
    26   12   77 1    
    27   13   14 ar   
    28   13   15 1    
    29   14   78 1    
    30   15   16 1    
    31   15   79 1    
    32   15   80 1    
    33   16   17 1    
    34   17   18 1    
    35   17   81 1    
    36   17   82 1    
    37   18   19 1    
    38   18   22 1    
    39   18   83 1    
    40   19   20 am   BACKBONE|DICT|INTERRES
    41   19   21 2    
    42   20   84 1    
    43   20   85 1    
    44   22   23 am   BACKBONE|DICT|INTERRES
    45   22   86 1    
    46   23   24 2    
    47   23   25 1    
    48   25   26 1    
    49   25   27 1    
    50   25   87 1    
    51   26   88 1    
    52   26   89 1    
    53   26   90 1    
    54   27   28 am   BACKBONE|DICT|INTERRES
    55   27   91 1    
    56   28   29 2    
    57   28   30 1    
    58   30   31 1    
    59   30   32 1    
    60   30   92 1    
    61   31   93 1    
    62   31   94 1    
    63   31   95 1    
    64   32   33 am   BACKBONE|DICT|INTERRES
    65   32   96 1    
    66   33   34 2    
    67   33   35 1    
    68   35   36 1    
    69   35   37 1    
    70   35   97 1    
    71   36   98 1    
    72   36   99 1    
    73   36  100 1    
    74   37   38 am   BACKBONE|DICT|INTERRES
    75   37  101 1    
    76   38   39 2    
    77   38   40 1    
    78   40   41 1    
    79   40   42 1    
    80   40  102 1    
    81   41  103 1    
    82   41  104 1    
    83   41  105 1    
    84   42   43 am   BACKBONE|DICT|INTERRES
    85   42  106 1    
    86   43   44 2    
    87   43   45 1    
    88   45   46 1    
    89   45   49 1    
    90   45  107 1    
    91   46   47 1    
    92   46  108 1    
    93   46  109 1    
    94   47   48 1    
    95   48  110 1    
    96   48  111 1    
    97   49   50 am   BACKBONE|DICT|INTERRES
    98   49  112 1    
    99   50   51 2    
   100   50   52 1    
   101   52   53 1    
   102   52   54 1    
   103   52  113 1    
   104   53  114 1    
   105   53  115 1    
   106   53  116 1    
   107   54   55 am   BACKBONE|DICT|INTERRES
   108   54  117 1    
   109   55   56 2    
   110   55   57 1    
   111   57   58 1    
   112   57   59 1    
   113   57  118 1    
   114   58  119 1    
   115   58  120 1    
   116   58  121 1    
   117   59   60 am   BACKBONE|DICT|INTERRES
   118   59  122 1    
   119   60   61 2    
   120   60   62 1    
   121   62   63 1    
   122   62   64 1    
   123   62  123 1    
   124   63  124 1    
   125   63  125 1    
   126   63  126 1    
   127   64   65 am   BACKBONE|DICT|INTERRES
   128   64  127 1    
   129   65   66 2    
@<TRIPOS>SUBSTRUCTURE
     1 UNK         1 GROUP             0       ****    0 ROOT    
