@<TRIPOS>MOLECULE
3R135
127   129    1
SMALL
USER_CHARGES


@<TRIPOS>ATOM
      1 CA        -82.5574   22.5842  -72.4940 C.3       0 UNK        -0.1998 
      2 C         -82.5468   23.9520  -73.1602 C.2       0 UNK         0.4909 
      3 O         -82.5875   24.0365  -74.3887 O.2       0 UNK        -0.5240 
      4 N         -82.5003   25.0242  -72.3594 N.am      1 UNK        -0.4739 
      5 CA        -82.4102   26.4109  -72.8269 C.3       1 UNK         0.0864 
      6 C6        -82.8971   27.4243  -71.7565 C.3       11 UNK        -0.0881 
      7 S7        -82.0601   27.3096  -70.1364 S.3       11 UNK        -0.2682 
      8 C8        -81.1129   28.8737  -70.0465 C.3       11 UNK         0.0289 
      9 C9        -79.6514   28.7487  -70.4745 C.ar      11 UNK        -0.0687 
     10 C10       -78.8908   27.6333  -70.1024 C.ar      11 UNK        -0.0823 
     11 C11       -77.5390   27.5478  -70.4398 C.ar      11 UNK        -0.0830 
     12 C12       -76.9326   28.6052  -71.1177 C.ar      11 UNK        -0.1021 
     13 C13       -77.6794   29.7097  -71.5287 C.ar      11 UNK        -0.0753 
     14 C14       -79.0389   29.7810  -71.1990 C.ar      11 UNK        -0.0933 
     15 C15       -76.9964   30.8028  -72.3385 C.3       11 UNK         0.0166 
     16 S16       -76.4448   30.1635  -73.9546 S.3       11 UNK        -0.2615 
     17 C17       -75.3731   31.5116  -74.5545 C.3       11 UNK        -0.0865 
     18 CA        -74.1356   30.9778  -75.3243 C.3       10 UNK         0.0862 
     19 C         -73.3150   32.1579  -75.9132 C.2       10 UNK         0.5551 
     20 N         -73.6119   32.5693  -77.1381 N.am      10 UNK        -0.7319 
     21 O         -72.4501   32.7306  -75.2526 O.2       10 UNK        -0.5018 
     22 N         -73.3246   30.0791  -74.4879 N.am      10 UNK        -0.4509 
     23 C         -72.2975   29.3325  -74.9137 C.2       10 UNK         0.4899 
     24 O         -71.9225   29.2944  -76.0865 O.2       10 UNK        -0.4839 
     25 CA        -71.5621   28.4816  -73.8617 C.3       9 UNK         0.0222 
     26 CB        -72.3225   28.3463  -72.5246 C.3       9 UNK        -0.1966 
     27 N         -71.3251   27.1427  -74.4010 N.am      9 UNK        -0.4218 
     28 C         -70.1329   26.6237  -74.7206 C.2       9 UNK         0.5020 
     29 O         -69.0662   27.2276  -74.5948 O.2       9 UNK        -0.5274 
     30 CA        -70.1074   25.1818  -75.2549 C.3       8 UNK         0.0270 
     31 CB        -70.1055   24.1765  -74.0905 C.3       8 UNK        -0.1976 
     32 N         -71.2349   24.8885  -76.1449 N.am      8 UNK        -0.4313 
     33 C         -71.1305   24.3451  -77.3668 C.2       8 UNK         0.5041 
     34 O         -70.0593   24.0219  -77.8829 O.2       8 UNK        -0.5577 
     35 CA        -72.4334   24.1033  -78.1586 C.3       7 UNK         0.0284 
     36 CB        -72.8758   22.6368  -78.0275 C.3       7 UNK        -0.1958 
     37 N         -73.5387   24.9697  -77.7466 N.am      7 UNK        -0.4454 
     38 C         -73.5713   26.2989  -77.9092 C.2       7 UNK         0.5089 
     39 O         -72.7406   26.9196  -78.5726 O.2       7 UNK        -0.5125 
     40 CA        -74.6975   27.0756  -77.1972 C.3       6 UNK         0.0408 
     41 CB        -75.7132   27.5989  -78.2263 C.3       6 UNK        -0.1791 
     42 N         -75.4103   26.3504  -76.1328 N.am      6 UNK        -0.4762 
     43 C         -74.8651   25.7678  -75.0533 C.2       6 UNK         0.5007 
     44 O         -73.6519   25.7393  -74.8434 O.2       6 UNK        -0.5032 
     45 CA        -75.8004   25.0683  -74.0485 C.3       5 UNK         0.0783 
     46 C46       -76.0476   25.9685  -72.8228 C.3       11 UNK        -0.0857 
     47 S47       -76.8654   25.0745  -71.4577 S.3       11 UNK        -0.2512 
     48 C48       -76.7394   26.2973  -70.1126 C.3       11 UNK         0.0225 
     49 N         -77.0580   24.6186  -74.6506 N.am      5 UNK        -0.4615 
     50 C         -77.1735   23.5500  -75.4476 C.2       4 UNK         0.5053 
     51 O         -76.2193   22.8669  -75.8206 O.2       4 UNK        -0.5105 
     52 CA        -78.5961   23.1827  -75.8961 C.3       4 UNK         0.0263 
     53 CB        -79.3605   22.4871  -74.7585 C.3       4 UNK        -0.1981 
     54 N         -79.3453   24.3571  -76.3429 N.am      4 UNK        -0.4224 
     55 C         -79.1470   24.9660  -77.5206 C.2       3 UNK         0.4895 
     56 O         -78.3675   24.5574  -78.3818 O.2       3 UNK        -0.5091 
     57 CA        -79.9408   26.2578  -77.7855 C.3       3 UNK         0.0250 
     58 CB        -81.2849   25.9341  -78.4573 C.3       3 UNK        -0.1996 
     59 N         -80.1802   27.0730  -76.5906 N.am      3 UNK        -0.4254 
     60 C         -79.2227   27.6044  -75.8160 C.2       2 UNK         0.5004 
     61 O         -78.0218   27.4270  -75.9965 O.2       2 UNK        -0.5226 
     62 CA        -79.6833   28.4441  -74.6163 C.3       2 UNK         0.0269 
     63 CB        -79.8892   29.9106  -75.0285 C.3       2 UNK        -0.1926 
     64 N         -80.9098   27.9383  -73.9998 N.am      2 UNK        -0.4687 
     65 C         -81.0118   26.7515  -73.3860 C.2       1 UNK         0.5165 
     66 O         -80.0733   25.9551  -73.2847 O.2       1 UNK        -0.5079 
     67 H67       -83.4452   22.0280  -72.7936 H         1 UNK         0.0900 
     68 H68       -82.5563   22.6611  -71.4069 H         1 UNK         0.0900 
     69 H69       -81.6797   22.0128  -72.7940 H         1 UNK         0.0900 
     70 H70       -82.4298   24.9041  -71.3588 H         1 UNK         0.2959 
     71 H71       -83.0930   26.5009  -73.6754 H         1 UNK         0.1079 
     72 H72       -83.9584   27.2498  -71.5725 H         1 UNK         0.0837 
     73 H73       -82.8486   28.4472  -72.1321 H         1 UNK         0.0837 
     74 H74       -81.6211   29.6504  -70.6193 H         1 UNK         0.0685 
     75 H75       -81.1243   29.2120  -69.0097 H         1 UNK         0.0685 
     76 H76       -79.3515   26.8213  -69.5573 H         1 UNK         0.1434 
     77 H77       -75.8846   28.5466  -71.3775 H         1 UNK         0.1329 
     78 H78       -79.6173   30.6439  -71.4992 H         1 UNK         0.1335 
     79 H79       -77.6654   31.6500  -72.4965 H         1 UNK         0.0680 
     80 H80       -76.1390   31.1757  -71.7764 H         1 UNK         0.0680 
     81 H81       -75.0577   32.1348  -73.7155 H         1 UNK         0.1032 
     82 H82       -75.9776   32.1532  -75.1987 H         1 UNK         0.1032 
     83 H83       -74.4995   30.3785  -76.1616 H         1 UNK         0.0461 
     84 H84       -74.3266   32.1130  -77.6834 H         1 UNK         0.3453 
     85 H85       -73.1020   33.3449  -77.5314 H         1 UNK         0.3453 
     86 H86       -73.5661   30.0578  -73.5093 H         1 UNK         0.2984 
     87 H87       -70.6144   28.9840  -73.6590 H         1 UNK         0.0554 
     88 H88       -71.7905   27.6876  -71.8378 H         1 UNK         0.0847 
     89 H89       -73.3221   27.9344  -72.6655 H         1 UNK         0.0847 
     90 H90       -72.4216   29.3086  -72.0209 H         1 UNK         0.0847 
     91 H91       -72.1651   26.5886  -74.5599 H         1 UNK         0.3141 
     92 H92       -69.1660   25.0696  -75.7971 H         1 UNK         0.0743 
     93 H93       -71.0297   24.2260  -73.5132 H         1 UNK         0.0784 
     94 H94       -69.9910   23.1545  -74.4521 H         1 UNK         0.0784 
     95 H95       -69.2795   24.3723  -73.4053 H         1 UNK         0.0784 
     96 H96       -72.1612   25.1283  -75.8015 H         1 UNK         0.3213 
     97 H97       -72.2195   24.3063  -79.2102 H         1 UNK         0.0855 
     98 H98       -73.1268   22.3813  -76.9970 H         1 UNK         0.0814 
     99 H99       -72.0830   21.9594  -78.3482 H         1 UNK         0.0814 
    100 H100      -73.7485   22.4280  -78.6466 H         1 UNK         0.0814 
    101 H101      -74.2772   24.5442  -77.2032 H         1 UNK         0.3105 
    102 H102      -74.2270   27.9391  -76.7271 H         1 UNK         0.0547 
    103 H103      -75.2143   28.0823  -79.0675 H         1 UNK         0.0837 
    104 H104      -76.3296   26.7940  -78.6285 H         1 UNK         0.0837 
    105 H105      -76.3750   28.3432  -77.7846 H         1 UNK         0.0837 
    106 H106      -76.4257   26.4184  -76.1648 H         1 UNK         0.3020 
    107 H107      -75.2614   24.1817  -73.7055 H         1 UNK         0.1245 
    108 H108      -76.6623   26.8223  -73.1138 H         1 UNK         0.0781 
    109 H109      -75.1072   26.3681  -72.4399 H         1 UNK         0.0781 
    110 H110      -75.6915   26.5457  -69.9374 H         1 UNK         0.0836 
    111 H111      -77.1064   25.8492  -69.1881 H         1 UNK         0.0836 
    112 H112      -77.8903   25.1266  -74.3818 H         1 UNK         0.3022 
    113 H113      -78.5160   22.4807  -76.7292 H         1 UNK         0.0747 
    114 H114      -80.3495   22.1664  -75.0863 H         1 UNK         0.0793 
    115 H115      -78.8280   21.5990  -74.4157 H         1 UNK         0.0793 
    116 H116      -79.4901   23.1438  -73.8967 H         1 UNK         0.0793 
    117 H117      -80.0010   24.7618  -75.6881 H         1 UNK         0.3047 
    118 H118      -79.3493   26.8625  -78.4765 H         1 UNK         0.0822 
    119 H119      -81.8137   26.8421  -78.7476 H         1 UNK         0.0807 
    120 H120      -81.9376   25.3595  -77.7985 H         1 UNK         0.0807 
    121 H121      -81.1364   25.3449  -79.3636 H         1 UNK         0.0807 
    122 H122      -81.1428   27.2635  -76.3542 H         1 UNK         0.2946 
    123 H123      -78.8884   28.3978  -73.8682 H         1 UNK         0.1144 
    124 H124      -80.7247   30.0257  -75.7198 H         1 UNK         0.0793 
    125 H125      -79.0019   30.3051  -75.5253 H         1 UNK         0.0793 
    126 H126      -80.0780   30.5420  -74.1604 H         1 UNK         0.0793 
    127 H127      -81.7191   28.5399  -74.0487 H         1 UNK         0.2896 
@<TRIPOS>BOND
     1    1    2 1    
     2    1   67 1    
     3    1   68 1    
     4    1   69 1    
     5    2    3 2    
     6    2    4 am   BACKBONE|DICT|INTERRES
     7    4    5 1    
     8    4   70 1    
     9    5    6 1    
    10    5   65 1    
    11    5   71 1    
    12    6    7 1    
    13    6   72 1    
    14    6   73 1    
    15    7    8 1    
    16    8    9 1    
    17    8   74 1    
    18    8   75 1    
    19    9   10 ar   
    20    9   14 ar   
    21   10   11 ar   
    22   10   76 1    
    23   11   12 ar   
    24   11   48 1    
    25   12   13 ar   
    26   12   77 1    
    27   13   14 ar   
    28   13   15 1    
    29   14   78 1    
    30   15   16 1    
    31   15   79 1    
    32   15   80 1    
    33   16   17 1    
    34   17   18 1    
    35   17   81 1    
    36   17   82 1    
    37   18   19 1    
    38   18   22 1    
    39   18   83 1    
    40   19   20 am   BACKBONE|DICT|INTERRES
    41   19   21 2    
    42   20   84 1    
    43   20   85 1    
    44   22   23 am   BACKBONE|DICT|INTERRES
    45   22   86 1    
    46   23   24 2    
    47   23   25 1    
    48   25   26 1    
    49   25   27 1    
    50   25   87 1    
    51   26   88 1    
    52   26   89 1    
    53   26   90 1    
    54   27   28 am   BACKBONE|DICT|INTERRES
    55   27   91 1    
    56   28   29 2    
    57   28   30 1    
    58   30   31 1    
    59   30   32 1    
    60   30   92 1    
    61   31   93 1    
    62   31   94 1    
    63   31   95 1    
    64   32   33 am   BACKBONE|DICT|INTERRES
    65   32   96 1    
    66   33   34 2    
    67   33   35 1    
    68   35   36 1    
    69   35   37 1    
    70   35   97 1    
    71   36   98 1    
    72   36   99 1    
    73   36  100 1    
    74   37   38 am   BACKBONE|DICT|INTERRES
    75   37  101 1    
    76   38   39 2    
    77   38   40 1    
    78   40   41 1    
    79   40   42 1    
    80   40  102 1    
    81   41  103 1    
    82   41  104 1    
    83   41  105 1    
    84   42   43 am   BACKBONE|DICT|INTERRES
    85   42  106 1    
    86   43   44 2    
    87   43   45 1    
    88   45   46 1    
    89   45   49 1    
    90   45  107 1    
    91   46   47 1    
    92   46  108 1    
    93   46  109 1    
    94   47   48 1    
    95   48  110 1    
    96   48  111 1    
    97   49   50 am   BACKBONE|DICT|INTERRES
    98   49  112 1    
    99   50   51 2    
   100   50   52 1    
   101   52   53 1    
   102   52   54 1    
   103   52  113 1    
   104   53  114 1    
   105   53  115 1    
   106   53  116 1    
   107   54   55 am   BACKBONE|DICT|INTERRES
   108   54  117 1    
   109   55   56 2    
   110   55   57 1    
   111   57   58 1    
   112   57   59 1    
   113   57  118 1    
   114   58  119 1    
   115   58  120 1    
   116   58  121 1    
   117   59   60 am   BACKBONE|DICT|INTERRES
   118   59  122 1    
   119   60   61 2    
   120   60   62 1    
   121   62   63 1    
   122   62   64 1    
   123   62  123 1    
   124   63  124 1    
   125   63  125 1    
   126   63  126 1    
   127   64   65 am   BACKBONE|DICT|INTERRES
   128   64  127 1    
   129   65   66 2    
@<TRIPOS>SUBSTRUCTURE
     1 UNK         1 GROUP             0       ****    0 ROOT    
