@<TRIPOS>MOLECULE
3R135
127   129    1
SMALL
USER_CHARGES


@<TRIPOS>ATOM
      1 CA        -86.2707   26.4277  -73.1721 C.3       0 UNK        -0.1998 
      2 C         -84.8587   26.9868  -73.0817 C.2       0 UNK         0.4909 
      3 O         -84.6593   28.1818  -73.3009 O.2       0 UNK        -0.5240 
      4 N         -83.8790   26.1323  -72.7557 N.am      1 UNK        -0.4739 
      5 CA        -82.4570   26.4845  -72.6530 C.3       1 UNK         0.0864 
      6 C6        -81.6788   25.3938  -71.8603 C.3       11 UNK        -0.0881 
      7 S7        -79.8541   25.5005  -71.8912 S.3       11 UNK        -0.2682 
      8 C8        -79.5276   26.8208  -70.6788 C.3       11 UNK         0.0289 
      9 C9        -78.4496   27.7605  -71.1979 C.ar      11 UNK        -0.0687 
     10 C10       -78.7997   28.8349  -72.0190 C.ar      11 UNK        -0.0823 
     11 C11       -77.8185   29.6675  -72.5643 C.ar      11 UNK        -0.0830 
     12 C12       -76.4741   29.4255  -72.2681 C.ar      11 UNK        -0.1021 
     13 C13       -76.1096   28.3597  -71.4377 C.ar      11 UNK        -0.0753 
     14 C14       -77.1033   27.5401  -70.8933 C.ar      11 UNK        -0.0933 
     15 C15       -74.6408   28.0596  -71.1807 C.3       11 UNK         0.0166 
     16 S16       -73.7936   29.4536  -70.3725 S.3       11 UNK        -0.2615 
     17 C17       -72.0452   28.9586  -70.5472 C.3       11 UNK        -0.0865 
     18 CA        -71.3596   29.6282  -71.7692 C.3       10 UNK         0.0862 
     19 C         -69.8155   29.4209  -71.7380 C.2       10 UNK         0.5551 
     20 N         -69.1906   28.8248  -72.7475 N.am      10 UNK        -0.7319 
     21 O         -69.1666   29.8197  -70.7742 O.2       10 UNK        -0.5018 
     22 N         -71.9954   29.2150  -73.0288 N.am      10 UNK        -0.4509 
     23 C         -71.9943   29.9144  -74.1691 C.2       10 UNK         0.4899 
     24 O         -71.5294   31.0503  -74.2756 O.2       10 UNK        -0.4839 
     25 CA        -72.6148   29.2112  -75.3956 C.3       9 UNK         0.0222 
     26 CB        -72.0897   29.7789  -76.7310 C.3       9 UNK        -0.1966 
     27 N         -72.4777   27.7455  -75.3671 N.am      9 UNK        -0.4218 
     28 C         -71.3329   27.0466  -75.3045 C.2       9 UNK         0.5020 
     29 O         -70.2153   27.5618  -75.2536 O.2       9 UNK        -0.5274 
     30 CA        -71.4455   25.5191  -75.2426 C.3       8 UNK         0.0270 
     31 CB        -71.6557   25.0617  -73.7881 C.3       8 UNK        -0.1976 
     32 N         -72.5355   25.0061  -76.0783 N.am      8 UNK        -0.4313 
     33 C         -72.3539   24.3332  -77.2216 C.2       8 UNK         0.5041 
     34 O         -71.2514   24.1392  -77.7365 O.2       8 UNK        -0.5577 
     35 CA        -73.5990   23.7310  -77.8911 C.3       7 UNK         0.0284 
     36 CB        -74.0519   22.4637  -77.1474 C.3       7 UNK        -0.1958 
     37 N         -74.7237   24.6605  -78.0167 N.am      7 UNK        -0.4454 
     38 C         -74.7812   25.6480  -78.9219 C.2       7 UNK         0.5089 
     39 O         -73.8487   25.9529  -79.6664 O.2       7 UNK        -0.5125 
     40 CA        -76.1170   26.4013  -79.0450 C.3       6 UNK         0.0408 
     41 CB        -77.1606   25.5467  -79.7824 C.3       6 UNK        -0.1791 
     42 N         -76.6467   26.8042  -77.7444 N.am      6 UNK        -0.4762 
     43 C         -76.1597   27.8207  -77.0188 C.2       6 UNK         0.5007 
     44 O         -75.2711   28.5748  -77.4129 O.2       6 UNK        -0.5032 
     45 CA        -76.7345   28.0002  -75.5996 C.3       5 UNK         0.0783 
     46 C46       -78.0004   28.8964  -75.5967 C.3       11 UNK        -0.0857 
     47 S47       -77.5731   30.6241  -75.1899 S.3       11 UNK        -0.2512 
     48 C48       -78.2213   30.8089  -73.4920 C.3       11 UNK         0.0225 
     49 N         -76.9487   26.7120  -74.9350 N.am      5 UNK        -0.4615 
     50 C         -75.9532   25.8866  -74.5841 C.2       4 UNK         0.5053 
     51 O         -74.7617   26.1607  -74.7301 O.2       4 UNK        -0.5105 
     52 CA        -76.3297   24.5023  -74.0354 C.3       4 UNK         0.0263 
     53 CB        -76.2578   24.4672  -72.5040 C.3       4 UNK        -0.1981 
     54 N         -77.6410   24.0371  -74.4957 N.am      4 UNK        -0.4224 
     55 C         -77.8800   23.6601  -75.7591 C.2       3 UNK         0.4895 
     56 O         -77.0339   23.6953  -76.6527 O.2       3 UNK        -0.5091 
     57 CA        -79.3006   23.1820  -76.0873 C.3       3 UNK         0.0250 
     58 CB        -79.6779   21.9392  -75.2627 C.3       3 UNK        -0.1996 
     59 N         -80.3324   24.2101  -75.9301 N.am      3 UNK        -0.4254 
     60 C         -80.3680   25.3963  -76.5572 C.2       2 UNK         0.5004 
     61 O         -79.4458   25.8534  -77.2322 O.2       2 UNK        -0.5226 
     62 CA        -81.6718   26.1997  -76.4191 C.3       2 UNK         0.0269 
     63 CB        -82.6982   25.7453  -77.4694 C.3       2 UNK        -0.1926 
     64 N         -82.2562   26.0762  -75.0807 N.am      2 UNK        -0.4687 
     65 C         -81.8443   26.8067  -74.0353 C.2       1 UNK         0.5165 
     66 O         -81.0247   27.7182  -74.1354 O.2       1 UNK        -0.5079 
     67 H67       -86.6754   26.5906  -74.1706 H         1 UNK         0.0900 
     68 H68       -86.9192   26.9305  -72.4553 H         1 UNK         0.0900 
     69 H69       -86.3011   25.3583  -72.9646 H         1 UNK         0.0900 
     70 H70       -84.1102   25.1658  -72.5730 H         1 UNK         0.2959 
     71 H71       -82.3928   27.4101  -72.0765 H         1 UNK         0.1079 
     72 H72       -82.0097   25.3857  -70.8205 H         1 UNK         0.0837 
     73 H73       -81.9316   24.4078  -72.2539 H         1 UNK         0.0837 
     74 H74       -79.2245   26.3735  -69.7311 H         1 UNK         0.0685 
     75 H75       -80.4387   27.3854  -70.4755 H         1 UNK         0.0685 
     76 H76       -79.8405   29.0042  -72.2570 H         1 UNK         0.1434 
     77 H77       -75.7084   30.0560  -72.6994 H         1 UNK         0.1329 
     78 H78       -76.8286   26.7066  -70.2616 H         1 UNK         0.1335 
     79 H79       -74.1684   27.8327  -72.1363 H         1 UNK         0.0680 
     80 H80       -74.5262   27.1693  -70.5604 H         1 UNK         0.0680 
     81 H81       -71.5411   29.2476  -69.6228 H         1 UNK         0.1032 
     82 H82       -71.9656   27.8713  -70.6018 H         1 UNK         0.1032 
     83 H83       -71.5049   30.7055  -71.6682 H         1 UNK         0.0461 
     84 H84       -69.6934   28.4997  -73.5661 H         1 UNK         0.3453 
     85 H85       -68.1910   28.7089  -72.7017 H         1 UNK         0.3453 
     86 H86       -72.3802   28.2840  -73.0462 H         1 UNK         0.2984 
     87 H87       -73.6839   29.4183  -75.3462 H         1 UNK         0.0554 
     88 H88       -72.5492   29.2757  -77.5817 H         1 UNK         0.0847 
     89 H89       -71.0084   29.6705  -76.8204 H         1 UNK         0.0847 
     90 H90       -72.3200   30.8408  -76.8234 H         1 UNK         0.0847 
     91 H91       -73.3498   27.2231  -75.3231 H         1 UNK         0.3141 
     92 H92       -70.4884   25.1131  -75.5769 H         1 UNK         0.0743 
     93 H93       -70.8474   25.4168  -73.1471 H         1 UNK         0.0784 
     94 H94       -72.5906   25.4347  -73.3695 H         1 UNK         0.0784 
     95 H95       -71.6698   23.9742  -73.7163 H         1 UNK         0.0784 
     96 H96       -73.4786   25.1720  -75.7398 H         1 UNK         0.3213 
     97 H97       -73.3078   23.4278  -78.8995 H         1 UNK         0.0855 
     98 H98       -74.3762   22.6826  -76.1305 H         1 UNK         0.0814 
     99 H99       -73.2398   21.7385  -77.0811 H         1 UNK         0.0814 
    100 H100      -74.8794   21.9763  -77.6630 H         1 UNK         0.0814 
    101 H101      -75.5609   24.4430  -77.4781 H         1 UNK         0.3105 
    102 H102      -75.9424   27.2998  -79.6409 H         1 UNK         0.0547 
    103 H103      -77.4104   24.6411  -79.2282 H         1 UNK         0.0837 
    104 H104      -78.0849   26.1024  -79.9410 H         1 UNK         0.0837 
    105 H105      -76.7931   25.2401  -80.7625 H         1 UNK         0.0837 
    106 H106      -77.4183   26.2566  -77.3742 H         1 UNK         0.3020 
    107 H107      -75.9558   28.4976  -75.0172 H         1 UNK         0.1245 
    108 H108      -78.7255   28.5369  -74.8689 H         1 UNK         0.0781 
    109 H109      -78.5287   28.8726  -76.5522 H         1 UNK         0.0781 
    110 H110      -77.8616   31.7511  -73.0763 H         1 UNK         0.0836 
    111 H111      -79.3078   30.8950  -73.5461 H         1 UNK         0.0836 
    112 H112      -77.9041   26.4197  -74.7937 H         1 UNK         0.3022 
    113 H113      -75.5781   23.8035  -74.4068 H         1 UNK         0.0747 
    114 H114      -75.2947   24.8343  -72.1471 H         1 UNK         0.0793 
    115 H115      -76.3790   23.4527  -72.1253 H         1 UNK         0.0793 
    116 H116      -77.0298   25.0844  -72.0535 H         1 UNK         0.0793 
    117 H117      -78.3898   24.0100  -73.8177 H         1 UNK         0.3047 
    118 H118      -79.2994   22.8927  -77.1403 H         1 UNK         0.0822 
    119 H119      -78.9115   21.1672  -75.3460 H         1 UNK         0.0807 
    120 H120      -80.6121   21.5010  -75.6147 H         1 UNK         0.0807 
    121 H121      -79.7965   22.1691  -74.2033 H         1 UNK         0.0807 
    122 H122      -81.1378   23.9503  -75.3813 H         1 UNK         0.2946 
    123 H123      -81.4330   27.2481  -76.6153 H         1 UNK         0.1144 
    124 H124      -82.2911   25.8398  -78.4773 H         1 UNK         0.0793 
    125 H125      -83.6015   26.3544  -77.4285 H         1 UNK         0.0793 
    126 H126      -82.9894   24.7033  -77.3318 H         1 UNK         0.0793 
    127 H127      -82.9720   25.3780  -74.9396 H         1 UNK         0.2896 
@<TRIPOS>BOND
     1    1    2 1    
     2    1   67 1    
     3    1   68 1    
     4    1   69 1    
     5    2    3 2    
     6    2    4 am   BACKBONE|DICT|INTERRES
     7    4    5 1    
     8    4   70 1    
     9    5    6 1    
    10    5   65 1    
    11    5   71 1    
    12    6    7 1    
    13    6   72 1    
    14    6   73 1    
    15    7    8 1    
    16    8    9 1    
    17    8   74 1    
    18    8   75 1    
    19    9   10 ar   
    20    9   14 ar   
    21   10   11 ar   
    22   10   76 1    
    23   11   12 ar   
    24   11   48 1    
    25   12   13 ar   
    26   12   77 1    
    27   13   14 ar   
    28   13   15 1    
    29   14   78 1    
    30   15   16 1    
    31   15   79 1    
    32   15   80 1    
    33   16   17 1    
    34   17   18 1    
    35   17   81 1    
    36   17   82 1    
    37   18   19 1    
    38   18   22 1    
    39   18   83 1    
    40   19   20 am   BACKBONE|DICT|INTERRES
    41   19   21 2    
    42   20   84 1    
    43   20   85 1    
    44   22   23 am   BACKBONE|DICT|INTERRES
    45   22   86 1    
    46   23   24 2    
    47   23   25 1    
    48   25   26 1    
    49   25   27 1    
    50   25   87 1    
    51   26   88 1    
    52   26   89 1    
    53   26   90 1    
    54   27   28 am   BACKBONE|DICT|INTERRES
    55   27   91 1    
    56   28   29 2    
    57   28   30 1    
    58   30   31 1    
    59   30   32 1    
    60   30   92 1    
    61   31   93 1    
    62   31   94 1    
    63   31   95 1    
    64   32   33 am   BACKBONE|DICT|INTERRES
    65   32   96 1    
    66   33   34 2    
    67   33   35 1    
    68   35   36 1    
    69   35   37 1    
    70   35   97 1    
    71   36   98 1    
    72   36   99 1    
    73   36  100 1    
    74   37   38 am   BACKBONE|DICT|INTERRES
    75   37  101 1    
    76   38   39 2    
    77   38   40 1    
    78   40   41 1    
    79   40   42 1    
    80   40  102 1    
    81   41  103 1    
    82   41  104 1    
    83   41  105 1    
    84   42   43 am   BACKBONE|DICT|INTERRES
    85   42  106 1    
    86   43   44 2    
    87   43   45 1    
    88   45   46 1    
    89   45   49 1    
    90   45  107 1    
    91   46   47 1    
    92   46  108 1    
    93   46  109 1    
    94   47   48 1    
    95   48  110 1    
    96   48  111 1    
    97   49   50 am   BACKBONE|DICT|INTERRES
    98   49  112 1    
    99   50   51 2    
   100   50   52 1    
   101   52   53 1    
   102   52   54 1    
   103   52  113 1    
   104   53  114 1    
   105   53  115 1    
   106   53  116 1    
   107   54   55 am   BACKBONE|DICT|INTERRES
   108   54  117 1    
   109   55   56 2    
   110   55   57 1    
   111   57   58 1    
   112   57   59 1    
   113   57  118 1    
   114   58  119 1    
   115   58  120 1    
   116   58  121 1    
   117   59   60 am   BACKBONE|DICT|INTERRES
   118   59  122 1    
   119   60   61 2    
   120   60   62 1    
   121   62   63 1    
   122   62   64 1    
   123   62  123 1    
   124   63  124 1    
   125   63  125 1    
   126   63  126 1    
   127   64   65 am   BACKBONE|DICT|INTERRES
   128   64  127 1    
   129   65   66 2    
@<TRIPOS>SUBSTRUCTURE
     1 UNK         1 GROUP             0       ****    0 ROOT    
