@<TRIPOS>MOLECULE
3R135
127   129    1
SMALL
USER_CHARGES


@<TRIPOS>ATOM
      1 CA        -81.3469   27.3204  -69.6577 C.3       0 UNK        -0.1998 
      2 C         -82.1620   27.3845  -70.9410 C.2       0 UNK         0.4909 
      3 O         -83.1377   28.1321  -71.0116 O.2       0 UNK        -0.5240 
      4 N         -81.7706   26.6060  -71.9536 N.am      1 UNK        -0.4739 
      5 CA        -82.4368   26.4992  -73.2493 C.3       1 UNK         0.0864 
      6 C6        -82.1741   27.7130  -74.1872 C.3       11 UNK        -0.0881 
      7 S7        -80.4080   28.0284  -74.5506 S.3       11 UNK        -0.2682 
      8 C8        -80.0860   29.5178  -73.5476 C.3       11 UNK         0.0289 
      9 C9        -78.7192   29.4566  -72.8835 C.ar      11 UNK        -0.0687 
     10 C10       -78.4808   28.5011  -71.8958 C.ar      11 UNK        -0.0823 
     11 C11       -77.2408   28.4182  -71.2618 C.ar      11 UNK        -0.0830 
     12 C12       -76.2291   29.3156  -71.6175 C.ar      11 UNK        -0.1021 
     13 C13       -76.4551   30.2933  -72.5951 C.ar      11 UNK        -0.0753 
     14 C14       -77.7059   30.3583  -73.2232 C.ar      11 UNK        -0.0933 
     15 C15       -75.3609   31.3023  -72.9305 C.3       11 UNK         0.0166 
     16 S16       -75.0364   31.4305  -74.7196 S.3       11 UNK        -0.2615 
     17 C17       -73.4835   32.3891  -74.7424 C.3       11 UNK        -0.0865 
     18 CA        -72.2569   31.5318  -75.1570 C.3       10 UNK         0.0862 
     19 C         -70.9954   32.4270  -75.3379 C.2       10 UNK         0.5551 
     20 N         -69.9386   32.2591  -74.5520 N.am      10 UNK        -0.7319 
     21 O         -70.9773   33.2908  -76.2115 O.2       10 UNK        -0.5018 
     22 N         -72.0758   30.3750  -74.2629 N.am      10 UNK        -0.4509 
     23 C         -71.3682   29.2750  -74.5498 C.2       10 UNK         0.4899 
     24 O         -70.7423   29.1218  -75.5998 O.2       10 UNK        -0.4839 
     25 CA        -71.3268   28.1705  -73.4764 C.3       9 UNK         0.0222 
     26 CB        -72.2170   28.4515  -72.2456 C.3       9 UNK        -0.1966 
     27 N         -71.7309   26.8954  -74.0658 N.am      9 UNK        -0.4218 
     28 C         -70.9010   25.9482  -74.5212 C.2       9 UNK         0.5020 
     29 O         -69.6719   26.0206  -74.4670 O.2       9 UNK        -0.5274 
     30 CA        -71.5510   24.6893  -75.1212 C.3       8 UNK         0.0270 
     31 CB        -72.0599   23.7577  -74.0085 C.3       8 UNK        -0.1976 
     32 N         -72.6439   24.9947  -76.0474 N.am      8 UNK        -0.4313 
     33 C         -72.4795   25.5265  -77.2673 C.2       8 UNK         0.5041 
     34 O         -71.3804   25.7753  -77.7646 O.2       8 UNK        -0.5577 
     35 CA        -73.7526   25.8247  -78.0792 C.3       7 UNK         0.0284 
     36 CB        -74.2536   24.5617  -78.7983 C.3       7 UNK        -0.1958 
     37 N         -74.8273   26.3789  -77.2558 N.am      7 UNK        -0.4454 
     38 C         -74.8072   27.5976  -76.6993 C.2       7 UNK         0.5089 
     39 O         -73.9224   28.4280  -76.9014 O.2       7 UNK        -0.5125 
     40 CA        -75.9592   27.9388  -75.7384 C.3       6 UNK         0.0408 
     41 CB        -77.1431   28.5525  -76.5005 C.3       6 UNK        -0.1791 
     42 N         -76.4059   26.7925  -74.9417 N.am      6 UNK        -0.4762 
     43 C         -75.6415   26.1876  -74.0200 C.2       6 UNK         0.5007 
     44 O         -74.4923   26.5390  -73.7571 O.2       6 UNK        -0.5032 
     45 CA        -76.2134   24.9304  -73.3330 C.3       5 UNK         0.0783 
     46 C46       -77.0786   25.2572  -72.0932 C.3       11 UNK        -0.0857 
     47 S47       -76.0709   25.9329  -70.7239 S.3       11 UNK        -0.2512 
     48 C48       -77.0232   27.3824  -70.1665 C.3       11 UNK         0.0225 
     49 N         -76.9101   24.0645  -74.2887 N.am      5 UNK        -0.4615 
     50 C         -76.2803   23.3928  -75.2631 C.2       4 UNK         0.5053 
     51 O         -75.0615   23.4213  -75.4324 O.2       4 UNK        -0.5105 
     52 CA        -77.1530   22.5861  -76.2362 C.3       4 UNK         0.0263 
     53 CB        -77.5406   21.2322  -75.6215 C.3       4 UNK        -0.1981 
     54 N         -78.3624   23.2883  -76.6717 N.am      4 UNK        -0.4224 
     55 C         -78.4061   24.4776  -77.2844 C.2       3 UNK         0.4895 
     56 O         -77.4074   25.1603  -77.5064 O.2       3 UNK        -0.5091 
     57 CA        -79.7795   25.0146  -77.7307 C.3       3 UNK         0.0250 
     58 CB        -80.0631   24.6217  -79.1930 C.3       3 UNK        -0.1996 
     59 N         -80.9190   24.6784  -76.8616 N.am      3 UNK        -0.4254 
     60 C         -81.4494   23.4804  -76.5676 C.2       2 UNK         0.5004 
     61 O         -81.0024   22.4142  -76.9929 O.2       2 UNK        -0.5226 
     62 CA        -82.6828   23.4675  -75.6401 C.3       2 UNK         0.0269 
     63 CB        -82.7278   22.2118  -74.7418 C.3       2 UNK        -0.1926 
     64 N         -82.8508   24.6935  -74.8425 N.am      2 UNK        -0.4687 
     65 C         -82.0309   25.1605  -73.8883 C.2       1 UNK         0.5165 
     66 O         -80.9891   24.6007  -73.5312 O.2       1 UNK        -0.5079 
     67 H67       -81.9981   27.1106  -68.8096 H         1 UNK         0.0900 
     68 H68       -80.8520   28.2748  -69.4795 H         1 UNK         0.0900 
     69 H69       -80.5850   26.5422  -69.6974 H         1 UNK         0.0900 
     70 H70       -80.9924   25.9649  -71.8562 H         1 UNK         0.2959 
     71 H71       -83.5112   26.4398  -73.0592 H         1 UNK         0.1079 
     72 H72       -82.6253   28.6086  -73.7587 H         1 UNK         0.0837 
     73 H73       -82.6902   27.5734  -75.1385 H         1 UNK         0.0837 
     74 H74       -80.1754   30.4000  -74.1831 H         1 UNK         0.0685 
     75 H75       -80.8392   29.6220  -72.7657 H         1 UNK         0.0685 
     76 H76       -79.2675   27.8129  -71.6276 H         1 UNK         0.1434 
     77 H77       -75.2715   29.2586  -71.1185 H         1 UNK         0.1329 
     78 H78       -77.8885   31.1136  -73.9750 H         1 UNK         0.1335 
     79 H79       -75.6535   32.2819  -72.5504 H         1 UNK         0.0680 
     80 H80       -74.4343   31.0351  -72.4212 H         1 UNK         0.0680 
     81 H81       -73.3174   32.8564  -73.7700 H         1 UNK         0.1032 
     82 H82       -73.6250   33.2114  -75.4466 H         1 UNK         0.1032 
     83 H83       -72.4704   31.1273  -76.1488 H         1 UNK         0.0461 
     84 H84       -69.9423   31.5486  -73.8384 H         1 UNK         0.3453 
     85 H85       -69.1274   32.8432  -74.6812 H         1 UNK         0.3453 
     86 H86       -72.5557   30.4208  -73.3782 H         1 UNK         0.2984 
     87 H87       -70.2947   28.1060  -73.1268 H         1 UNK         0.0554 
     88 H88       -72.1667   27.6281  -71.5329 H         1 UNK         0.0847 
     89 H89       -73.2655   28.5776  -72.5191 H         1 UNK         0.0847 
     90 H90       -71.8946   29.3475  -71.7139 H         1 UNK         0.0847 
     91 H91       -72.7363   26.7395  -74.1331 H         1 UNK         0.3141 
     92 H92       -70.7803   24.1529  -75.6791 H         1 UNK         0.0743 
     93 H93       -72.8532   24.2226  -73.4225 H         1 UNK         0.0784 
     94 H94       -72.4503   22.8263  -74.4194 H         1 UNK         0.0784 
     95 H95       -71.2553   23.4965  -73.3199 H         1 UNK         0.0784 
     96 H96       -73.5819   24.7449  -75.7482 H         1 UNK         0.3213 
     97 H97       -73.4956   26.5672  -78.8378 H         1 UNK         0.0855 
     98 H98       -73.4804   24.1520  -79.4495 H         1 UNK         0.0814 
     99 H99       -75.1221   24.7782  -79.4207 H         1 UNK         0.0814 
    100 H100      -74.5354   23.7788  -78.0940 H         1 UNK         0.0814 
    101 H101      -75.6516   25.7997  -77.1141 H         1 UNK         0.3105 
    102 H102      -75.5851   28.6839  -75.0367 H         1 UNK         0.0547 
    103 H103      -76.8182   29.4060  -77.0968 H         1 UNK         0.0837 
    104 H104      -77.6086   27.8372  -77.1783 H         1 UNK         0.0837 
    105 H105      -77.9059   28.9168  -75.8149 H         1 UNK         0.0837 
    106 H106      -77.3230   26.4221  -75.1426 H         1 UNK         0.3020 
    107 H107      -75.3517   24.3603  -72.9764 H         1 UNK         0.1245 
    108 H108      -77.5504   24.3463  -71.7217 H         1 UNK         0.0781 
    109 H109      -77.8967   25.9252  -72.3588 H         1 UNK         0.0781 
    110 H110      -76.4945   27.8471  -69.3331 H         1 UNK         0.0836 
    111 H111      -77.9780   27.0431  -69.7622 H         1 UNK         0.0836 
    112 H112      -77.9160   24.0045  -74.2178 H         1 UNK         0.3022 
    113 H113      -76.5534   22.3954  -77.1285 H         1 UNK         0.0747 
    114 H114      -78.0683   20.6069  -76.3421 H         1 UNK         0.0793 
    115 H115      -76.6556   20.6801  -75.3016 H         1 UNK         0.0793 
    116 H116      -78.1846   21.3531  -74.7494 H         1 UNK         0.0793 
    117 H117      -79.2443   22.7864  -76.5950 H         1 UNK         0.3047 
    118 H118      -79.7016   26.1027  -77.6950 H         1 UNK         0.0822 
    119 H119      -80.9845   25.0780  -79.5548 H         1 UNK         0.0807 
    120 H120      -80.1526   23.5418  -79.3152 H         1 UNK         0.0807 
    121 H121      -79.2576   24.9555  -79.8487 H         1 UNK         0.0807 
    122 H122      -81.3515   25.4747  -76.4154 H         1 UNK         0.2946 
    123 H123      -83.5450   23.4195  -76.3075 H         1 UNK         0.1144 
    124 H124      -82.7702   21.3019  -75.3418 H         1 UNK         0.0793 
    125 H125      -83.6087   22.2137  -74.1000 H         1 UNK         0.0793 
    126 H126      -81.8469   22.1358  -74.1037 H         1 UNK         0.0793 
    127 H127      -83.6758   25.2350  -75.0650 H         1 UNK         0.2896 
@<TRIPOS>BOND
     1    1    2 1    
     2    1   67 1    
     3    1   68 1    
     4    1   69 1    
     5    2    3 2    
     6    2    4 am   BACKBONE|DICT|INTERRES
     7    4    5 1    
     8    4   70 1    
     9    5    6 1    
    10    5   65 1    
    11    5   71 1    
    12    6    7 1    
    13    6   72 1    
    14    6   73 1    
    15    7    8 1    
    16    8    9 1    
    17    8   74 1    
    18    8   75 1    
    19    9   10 ar   
    20    9   14 ar   
    21   10   11 ar   
    22   10   76 1    
    23   11   12 ar   
    24   11   48 1    
    25   12   13 ar   
    26   12   77 1    
    27   13   14 ar   
    28   13   15 1    
    29   14   78 1    
    30   15   16 1    
    31   15   79 1    
    32   15   80 1    
    33   16   17 1    
    34   17   18 1    
    35   17   81 1    
    36   17   82 1    
    37   18   19 1    
    38   18   22 1    
    39   18   83 1    
    40   19   20 am   BACKBONE|DICT|INTERRES
    41   19   21 2    
    42   20   84 1    
    43   20   85 1    
    44   22   23 am   BACKBONE|DICT|INTERRES
    45   22   86 1    
    46   23   24 2    
    47   23   25 1    
    48   25   26 1    
    49   25   27 1    
    50   25   87 1    
    51   26   88 1    
    52   26   89 1    
    53   26   90 1    
    54   27   28 am   BACKBONE|DICT|INTERRES
    55   27   91 1    
    56   28   29 2    
    57   28   30 1    
    58   30   31 1    
    59   30   32 1    
    60   30   92 1    
    61   31   93 1    
    62   31   94 1    
    63   31   95 1    
    64   32   33 am   BACKBONE|DICT|INTERRES
    65   32   96 1    
    66   33   34 2    
    67   33   35 1    
    68   35   36 1    
    69   35   37 1    
    70   35   97 1    
    71   36   98 1    
    72   36   99 1    
    73   36  100 1    
    74   37   38 am   BACKBONE|DICT|INTERRES
    75   37  101 1    
    76   38   39 2    
    77   38   40 1    
    78   40   41 1    
    79   40   42 1    
    80   40  102 1    
    81   41  103 1    
    82   41  104 1    
    83   41  105 1    
    84   42   43 am   BACKBONE|DICT|INTERRES
    85   42  106 1    
    86   43   44 2    
    87   43   45 1    
    88   45   46 1    
    89   45   49 1    
    90   45  107 1    
    91   46   47 1    
    92   46  108 1    
    93   46  109 1    
    94   47   48 1    
    95   48  110 1    
    96   48  111 1    
    97   49   50 am   BACKBONE|DICT|INTERRES
    98   49  112 1    
    99   50   51 2    
   100   50   52 1    
   101   52   53 1    
   102   52   54 1    
   103   52  113 1    
   104   53  114 1    
   105   53  115 1    
   106   53  116 1    
   107   54   55 am   BACKBONE|DICT|INTERRES
   108   54  117 1    
   109   55   56 2    
   110   55   57 1    
   111   57   58 1    
   112   57   59 1    
   113   57  118 1    
   114   58  119 1    
   115   58  120 1    
   116   58  121 1    
   117   59   60 am   BACKBONE|DICT|INTERRES
   118   59  122 1    
   119   60   61 2    
   120   60   62 1    
   121   62   63 1    
   122   62   64 1    
   123   62  123 1    
   124   63  124 1    
   125   63  125 1    
   126   63  126 1    
   127   64   65 am   BACKBONE|DICT|INTERRES
   128   64  127 1    
   129   65   66 2    
@<TRIPOS>SUBSTRUCTURE
     1 UNK         1 GROUP             0       ****    0 ROOT    
