@<TRIPOS>MOLECULE
3R135
127   129    1
SMALL
USER_CHARGES


@<TRIPOS>ATOM
      1 CA        -82.8433   26.7036  -70.1720 C.3       0 UNK        -0.1998 
      2 C         -82.2526   26.8350  -71.5670 C.2       0 UNK         0.4909 
      3 O         -81.1847   26.2835  -71.8279 O.2       0 UNK        -0.5240 
      4 N         -82.9490   27.5456  -72.4657 N.am      1 UNK        -0.4739 
      5 CA        -82.5851   27.8842  -73.8564 C.3       1 UNK         0.0864 
      6 C6        -81.2597   28.6803  -73.9949 C.3       11 UNK        -0.0881 
      7 S7        -81.2225   30.1768  -72.9494 S.3       11 UNK        -0.2682 
      8 C8        -79.4969   30.7341  -73.1744 C.3       11 UNK         0.0289 
      9 C9        -78.4085   29.7816  -72.6710 C.ar      11 UNK        -0.0687 
     10 C10       -78.6636   28.7478  -71.7583 C.ar      11 UNK        -0.0823 
     11 C11       -77.6448   27.8837  -71.3464 C.ar      11 UNK        -0.0830 
     12 C12       -76.3477   28.0839  -71.8255 C.ar      11 UNK        -0.1021 
     13 C13       -76.0723   29.1146  -72.7260 C.ar      11 UNK        -0.0753 
     14 C14       -77.1037   29.9599  -73.1418 C.ar      11 UNK        -0.0933 
     15 C15       -74.6700   29.2696  -73.2876 C.3       11 UNK         0.0166 
     16 S16       -73.4807   29.8046  -72.0144 S.3       11 UNK        -0.2615 
     17 C17       -73.1784   31.5430  -72.4964 C.3       11 UNK        -0.0865 
     18 CA        -71.9341   31.7127  -73.4111 C.3       10 UNK         0.0862 
     19 C         -70.5954   31.5785  -72.6237 C.2       10 UNK         0.5551 
     20 N         -69.7281   30.6185  -72.9266 N.am      10 UNK        -0.7319 
     21 O         -70.3340   32.3761  -71.7264 O.2       10 UNK        -0.5018 
     22 N         -72.0399   30.8508  -74.5943 N.am      10 UNK        -0.4509 
     23 C         -71.3950   31.0123  -75.7524 C.2       10 UNK         0.4899 
     24 O         -70.6979   31.9923  -76.0190 O.2       10 UNK        -0.4839 
     25 CA        -71.5706   29.8769  -76.7810 C.3       9 UNK         0.0222 
     26 CB        -70.4012   29.8029  -77.7850 C.3       9 UNK        -0.1966 
     27 N         -71.8187   28.5553  -76.1809 N.am      9 UNK        -0.4218 
     28 C         -71.0110   27.8737  -75.3480 C.2       9 UNK         0.5020 
     29 O         -69.9712   28.3417  -74.8810 O.2       9 UNK        -0.5274 
     30 CA        -71.4144   26.4357  -74.9522 C.3       8 UNK         0.0270 
     31 CB        -71.7452   26.3446  -73.4532 C.3       8 UNK        -0.1976 
     32 N         -72.5299   25.8909  -75.7340 N.am      8 UNK        -0.4313 
     33 C         -72.4465   25.5476  -77.0295 C.2       8 UNK         0.5041 
     34 O         -71.3876   25.5416  -77.6587 O.2       8 UNK        -0.5577 
     35 CA        -73.7471   25.1821  -77.7741 C.3       7 UNK         0.0284 
     36 CB        -73.8365   23.6583  -77.9613 C.3       7 UNK        -0.1958 
     37 N         -74.9865   25.6631  -77.1526 N.am      7 UNK        -0.4454 
     38 C         -75.2749   26.9291  -76.8151 C.2       7 UNK         0.5089 
     39 O         -74.5311   27.8847  -77.0410 O.2       7 UNK        -0.5125 
     40 CA        -76.5757   27.1615  -76.0240 C.3       6 UNK         0.0408 
     41 CB        -77.7284   27.5257  -76.9695 C.3       6 UNK        -0.1791 
     42 N         -76.9789   26.0343  -75.1743 N.am      6 UNK        -0.4762 
     43 C         -76.2316   25.4716  -74.2094 C.2       6 UNK         0.5007 
     44 O         -75.0682   25.7953  -73.9638 O.2       6 UNK        -0.5032 
     45 CA        -76.8709   24.2987  -73.4468 C.3       5 UNK         0.0783 
     46 C46       -77.9412   24.7602  -72.4213 C.3       11 UNK        -0.0857 
     47 S47       -77.1876   25.1552  -70.8059 S.3       11 UNK        -0.2512 
     48 C48       -77.9596   26.7524  -70.3719 C.3       11 UNK         0.0225 
     49 N         -77.3996   23.3269  -74.4052 N.am      5 UNK        -0.4615 
     50 C         -76.6601   22.3709  -74.9860 C.2       4 UNK         0.5053 
     51 O         -75.4843   22.1475  -74.6985 O.2       4 UNK        -0.5105 
     52 CA        -77.3308   21.5157  -76.0765 C.3       4 UNK         0.0263 
     53 CB        -77.8771   20.2116  -75.4735 C.3       4 UNK        -0.1981 
     54 N         -78.4090   22.2057  -76.7873 N.am      4 UNK        -0.4224 
     55 C         -78.2446   23.2767  -77.5768 C.2       3 UNK         0.4895 
     56 O         -77.1546   23.7911  -77.8207 O.2       3 UNK        -0.5091 
     57 CA        -79.5240   23.9146  -78.1435 C.3       3 UNK         0.0250 
     58 CB        -79.9309   23.2302  -79.4581 C.3       3 UNK        -0.1996 
     59 N         -80.6546   23.8975  -77.2073 N.am      3 UNK        -0.4254 
     60 C         -80.6475   24.4550  -75.9884 C.2       2 UNK         0.5004 
     61 O         -79.6639   25.0109  -75.4901 O.2       2 UNK        -0.5226 
     62 CA        -81.9315   24.3095  -75.1611 C.3       2 UNK         0.0269 
     63 CB        -81.8241   23.0951  -74.2247 C.3       2 UNK        -0.1926 
     64 N         -82.1523   25.5075  -74.3569 N.am      2 UNK        -0.4687 
     65 C         -82.5852   26.6822  -74.8266 C.2       1 UNK         0.5165 
     66 O         -82.9812   26.8422  -75.9825 O.2       1 UNK        -0.5079 
     67 H67       -83.0205   25.6543  -69.9378 H         1 UNK         0.0900 
     68 H68       -83.7880   27.2383  -70.0759 H         1 UNK         0.0900 
     69 H69       -82.1494   27.1053  -69.4342 H         1 UNK         0.0900 
     70 H70       -83.8336   27.9358  -72.1715 H         1 UNK         0.2959 
     71 H71       -83.3868   28.5381  -74.2043 H         1 UNK         0.1079 
     72 H72       -80.4089   28.0422  -73.7510 H         1 UNK         0.0837 
     73 H73       -81.1111   28.9937  -75.0302 H         1 UNK         0.0837 
     74 H74       -79.3784   31.6892  -72.6613 H         1 UNK         0.0685 
     75 H75       -79.3431   30.9333  -74.2362 H         1 UNK         0.0685 
     76 H76       -79.6618   28.5971  -71.3735 H         1 UNK         0.1434 
     77 H77       -75.5486   27.4244  -71.5149 H         1 UNK         0.1329 
     78 H78       -76.8935   30.7530  -73.8464 H         1 UNK         0.1335 
     79 H79       -74.3490   28.3115  -73.6929 H         1 UNK         0.0680 
     80 H80       -74.6697   29.9585  -74.1331 H         1 UNK         0.0680 
     81 H81       -73.0762   32.1427  -71.5899 H         1 UNK         0.1032 
     82 H82       -74.0636   31.9375  -72.9974 H         1 UNK         0.1032 
     83 H83       -71.9487   32.7434  -73.7706 H         1 UNK         0.0461 
     84 H84       -69.9226   29.9461  -73.6608 H         1 UNK         0.3453 
     85 H85       -68.8669   30.5547  -72.4084 H         1 UNK         0.3453 
     86 H86       -72.5512   29.9931  -74.4547 H         1 UNK         0.2984 
     87 H87       -72.4722   30.1210  -77.3446 H         1 UNK         0.0554 
     88 H88       -70.5539   29.0064  -78.5134 H         1 UNK         0.0847 
     89 H89       -69.4498   29.6209  -77.2839 H         1 UNK         0.0847 
     90 H90       -70.3017   30.7349  -78.3428 H         1 UNK         0.0847 
     91 H91       -72.6867   28.1135  -76.4757 H         1 UNK         0.3141 
     92 H92       -70.5410   25.8063  -75.1356 H         1 UNK         0.0743 
     93 H93       -72.6162   26.9419  -73.1894 H         1 UNK         0.0784 
     94 H94       -71.9461   25.3157  -73.1541 H         1 UNK         0.0784 
     95 H95       -70.9125   26.7009  -72.8452 H         1 UNK         0.0784 
     96 H96       -73.4341   25.8503  -75.2720 H         1 UNK         0.3213 
     97 H97       -73.6850   25.6451  -78.7608 H         1 UNK         0.0855 
     98 H98       -73.9961   23.1452  -77.0120 H         1 UNK         0.0814 
     99 H99       -72.9199   23.2599  -78.3987 H         1 UNK         0.0814 
    100 H100      -74.6520   23.3874  -78.6316 H         1 UNK         0.0814 
    101 H101      -75.7068   24.9643  -76.9981 H         1 UNK         0.3105 
    102 H102      -76.4044   28.0117  -75.3634 H         1 UNK         0.0547 
    103 H103      -77.4863   28.4135  -77.5551 H         1 UNK         0.0837 
    104 H104      -77.9384   26.7195  -77.6714 H         1 UNK         0.0837 
    105 H105      -78.6441   27.7397  -76.4175 H         1 UNK         0.0837 
    106 H106      -77.9256   25.6847  -75.3110 H         1 UNK         0.3020 
    107 H107      -76.0664   23.8085  -72.8925 H         1 UNK         0.1245 
    108 H108      -78.5320   25.6002  -72.7936 H         1 UNK         0.0781 
    109 H109      -78.6594   23.9591  -72.2396 H         1 UNK         0.0781 
    110 H110      -79.0365   26.6010  -70.2891 H         1 UNK         0.0836 
    111 H111      -77.6153   27.0465  -69.3798 H         1 UNK         0.0836 
    112 H112      -78.3373   23.5003  -74.7439 H         1 UNK         0.3022 
    113 H113      -76.5612   21.2599  -76.8081 H         1 UNK         0.0747 
    114 H114      -78.2785   19.5542  -76.2451 H         1 UNK         0.0793 
    115 H115      -77.0889   19.6597  -74.9591 H         1 UNK         0.0793 
    116 H116      -78.6684   20.4020  -74.7472 H         1 UNK         0.0793 
    117 H117      -79.3454   21.8561  -76.6467 H         1 UNK         0.3047 
    118 H118      -79.2996   24.9594  -78.3629 H         1 UNK         0.0822 
    119 H119      -80.7763   23.7365  -79.9245 H         1 UNK         0.0807 
    120 H120      -80.2068   22.1862  -79.3043 H         1 UNK         0.0807 
    121 H121      -79.1100   23.2477  -80.1767 H         1 UNK         0.0807 
    122 H122      -81.4991   23.4486  -77.5325 H         1 UNK         0.2946 
    123 H123      -82.7830   24.1727  -75.8316 H         1 UNK         0.1144 
    124 H124      -82.7322   22.9696  -73.6348 H         1 UNK         0.0793 
    125 H125      -80.9873   23.1931  -73.5313 H         1 UNK         0.0793 
    126 H126      -81.6758   22.1738  -74.7895 H         1 UNK         0.0793 
    127 H127      -81.7662   25.5115  -73.4157 H         1 UNK         0.2896 
@<TRIPOS>BOND
     1    1    2 1    
     2    1   67 1    
     3    1   68 1    
     4    1   69 1    
     5    2    3 2    
     6    2    4 am   BACKBONE|DICT|INTERRES
     7    4    5 1    
     8    4   70 1    
     9    5    6 1    
    10    5   65 1    
    11    5   71 1    
    12    6    7 1    
    13    6   72 1    
    14    6   73 1    
    15    7    8 1    
    16    8    9 1    
    17    8   74 1    
    18    8   75 1    
    19    9   10 ar   
    20    9   14 ar   
    21   10   11 ar   
    22   10   76 1    
    23   11   12 ar   
    24   11   48 1    
    25   12   13 ar   
    26   12   77 1    
    27   13   14 ar   
    28   13   15 1    
    29   14   78 1    
    30   15   16 1    
    31   15   79 1    
    32   15   80 1    
    33   16   17 1    
    34   17   18 1    
    35   17   81 1    
    36   17   82 1    
    37   18   19 1    
    38   18   22 1    
    39   18   83 1    
    40   19   20 am   BACKBONE|DICT|INTERRES
    41   19   21 2    
    42   20   84 1    
    43   20   85 1    
    44   22   23 am   BACKBONE|DICT|INTERRES
    45   22   86 1    
    46   23   24 2    
    47   23   25 1    
    48   25   26 1    
    49   25   27 1    
    50   25   87 1    
    51   26   88 1    
    52   26   89 1    
    53   26   90 1    
    54   27   28 am   BACKBONE|DICT|INTERRES
    55   27   91 1    
    56   28   29 2    
    57   28   30 1    
    58   30   31 1    
    59   30   32 1    
    60   30   92 1    
    61   31   93 1    
    62   31   94 1    
    63   31   95 1    
    64   32   33 am   BACKBONE|DICT|INTERRES
    65   32   96 1    
    66   33   34 2    
    67   33   35 1    
    68   35   36 1    
    69   35   37 1    
    70   35   97 1    
    71   36   98 1    
    72   36   99 1    
    73   36  100 1    
    74   37   38 am   BACKBONE|DICT|INTERRES
    75   37  101 1    
    76   38   39 2    
    77   38   40 1    
    78   40   41 1    
    79   40   42 1    
    80   40  102 1    
    81   41  103 1    
    82   41  104 1    
    83   41  105 1    
    84   42   43 am   BACKBONE|DICT|INTERRES
    85   42  106 1    
    86   43   44 2    
    87   43   45 1    
    88   45   46 1    
    89   45   49 1    
    90   45  107 1    
    91   46   47 1    
    92   46  108 1    
    93   46  109 1    
    94   47   48 1    
    95   48  110 1    
    96   48  111 1    
    97   49   50 am   BACKBONE|DICT|INTERRES
    98   49  112 1    
    99   50   51 2    
   100   50   52 1    
   101   52   53 1    
   102   52   54 1    
   103   52  113 1    
   104   53  114 1    
   105   53  115 1    
   106   53  116 1    
   107   54   55 am   BACKBONE|DICT|INTERRES
   108   54  117 1    
   109   55   56 2    
   110   55   57 1    
   111   57   58 1    
   112   57   59 1    
   113   57  118 1    
   114   58  119 1    
   115   58  120 1    
   116   58  121 1    
   117   59   60 am   BACKBONE|DICT|INTERRES
   118   59  122 1    
   119   60   61 2    
   120   60   62 1    
   121   62   63 1    
   122   62   64 1    
   123   62  123 1    
   124   63  124 1    
   125   63  125 1    
   126   63  126 1    
   127   64   65 am   BACKBONE|DICT|INTERRES
   128   64  127 1    
   129   65   66 2    
@<TRIPOS>SUBSTRUCTURE
     1 UNK         1 GROUP             0       ****    0 ROOT    
