@<TRIPOS>MOLECULE
3R135
127   129    1
SMALL
USER_CHARGES


@<TRIPOS>ATOM
      1 CA        -80.5444   23.8482  -69.0075 C.3       0 UNK        -0.1998 
      2 C         -81.3179   24.6250  -70.0627 C.2       0 UNK         0.4909 
      3 O         -82.5068   24.8882  -69.8779 O.2       0 UNK        -0.5240 
      4 N         -80.6497   24.9846  -71.1632 N.am      1 UNK        -0.4739 
      5 CA        -81.2179   25.6818  -72.3206 C.3       1 UNK         0.0864 
      6 C6        -80.7324   27.1511  -72.4267 C.3       11 UNK        -0.0881 
      7 S7        -81.2077   28.1748  -70.9915 S.3       11 UNK        -0.2682 
      8 C8        -79.5727   28.7020  -70.3626 C.3       11 UNK         0.0289 
      9 C9        -78.8196   29.7318  -71.2134 C.ar      11 UNK        -0.0687 
     10 C10       -79.2904   30.1943  -72.4505 C.ar      11 UNK        -0.0823 
     11 C11       -78.5548   31.1126  -73.2032 C.ar      11 UNK        -0.0830 
     12 C12       -77.3538   31.6101  -72.6961 C.ar      11 UNK        -0.1021 
     13 C13       -76.8729   31.1721  -71.4599 C.ar      11 UNK        -0.0753 
     14 C14       -77.6040   30.2290  -70.7300 C.ar      11 UNK        -0.0933 
     15 C15       -75.5677   31.7316  -70.9155 C.3       11 UNK         0.0166 
     16 S16       -74.1360   31.1670  -71.8837 S.3       11 UNK        -0.2615 
     17 C17       -74.0276   29.4201  -71.3702 C.3       11 UNK        -0.0865 
     18 CA        -72.7531   28.7379  -71.9356 C.3       10 UNK         0.0862 
     19 C         -72.4391   27.3718  -71.2585 C.2       10 UNK         0.5551 
     20 N         -71.8075   26.4270  -71.9459 N.am      10 UNK        -0.7319 
     21 O         -72.7480   27.1654  -70.0873 O.2       10 UNK        -0.5018 
     22 N         -72.8219   28.6178  -73.3988 N.am      10 UNK        -0.4509 
     23 C         -71.9890   29.1857  -74.2759 C.2       10 UNK         0.4899 
     24 O         -71.0815   29.9598  -73.9650 O.2       10 UNK        -0.4839 
     25 CA        -72.1966   28.7881  -75.7527 C.3       9 UNK         0.0222 
     26 CB        -71.0637   29.2889  -76.6728 C.3       9 UNK        -0.1966 
     27 N         -72.4019   27.3444  -75.9449 N.am      9 UNK        -0.4218 
     28 C         -71.6060   26.3481  -75.5221 C.2       9 UNK         0.5020 
     29 O         -70.5819   26.5182  -74.8589 O.2       9 UNK        -0.5274 
     30 CA        -72.0258   24.9062  -75.8542 C.3       8 UNK         0.0270 
     31 CB        -72.5682   24.2082  -74.5985 C.3       8 UNK        -0.1976 
     32 N         -73.0142   24.8093  -76.9321 N.am      8 UNK        -0.4313 
     33 C         -72.7075   24.9049  -78.2328 C.2       8 UNK         0.5041 
     34 O         -71.5784   25.1629  -78.6519 O.2       8 UNK        -0.5577 
     35 CA        -73.8393   24.6635  -79.2366 C.3       7 UNK         0.0284 
     36 CB        -74.2097   23.1708  -79.2983 C.3       7 UNK        -0.1958 
     37 N         -75.0284   25.4529  -78.9072 N.am      7 UNK        -0.4454 
     38 C         -75.5389   26.4020  -79.7017 C.2       7 UNK         0.5089 
     39 O         -75.0283   26.7546  -80.7659 O.2       7 UNK        -0.5125 
     40 CA        -76.8612   27.0575  -79.2734 C.3       6 UNK         0.0408 
     41 CB        -78.0541   26.2939  -79.8705 C.3       6 UNK        -0.1791 
     42 N         -77.0548   27.1944  -77.8292 N.am      6 UNK        -0.4762 
     43 C         -76.3883   28.0609  -77.0518 C.2       6 UNK         0.5007 
     44 O         -75.3799   28.6697  -77.4085 O.2       6 UNK        -0.5032 
     45 CA        -76.9713   28.2958  -75.6460 C.3       5 UNK         0.0783 
     46 C46       -78.3245   29.0526  -75.7166 C.3       11 UNK        -0.0857 
     47 S47       -78.0873   30.8510  -75.9347 S.3       11 UNK        -0.2512 
     48 C48       -79.0604   31.5626  -74.5664 C.3       11 UNK         0.0225 
     49 N         -77.1050   27.0165  -74.9555 N.am      5 UNK        -0.4615 
     50 C         -76.1352   26.4460  -74.2296 C.2       4 UNK         0.5053 
     51 O         -75.0556   26.9815  -73.9815 O.2       4 UNK        -0.5105 
     52 CA        -76.3988   25.0130  -73.7326 C.3       4 UNK         0.0263 
     53 CB        -77.0637   25.0363  -72.3489 C.3       4 UNK        -0.1981 
     54 N         -77.2001   24.2236  -74.6752 N.am      4 UNK        -0.4224 
     55 C         -76.7994   23.9288  -75.9233 C.2       3 UNK         0.4895 
     56 O         -75.6950   24.2380  -76.3721 O.2       3 UNK        -0.5091 
     57 CA        -77.7937   23.2236  -76.8611 C.3       3 UNK         0.0250 
     58 CB        -77.5274   21.7109  -76.8772 C.3       3 UNK        -0.1996 
     59 N         -79.2047   23.4649  -76.5503 N.am      3 UNK        -0.4254 
     60 C         -79.8090   24.6599  -76.4804 C.2       2 UNK         0.5004 
     61 O         -79.2344   25.7335  -76.6765 O.2       2 UNK        -0.5226 
     62 CA        -81.2912   24.6679  -76.0567 C.3       2 UNK         0.0269 
     63 CB        -81.9761   23.2839  -76.1327 C.3       2 UNK        -0.1926 
     64 N         -81.4778   25.2459  -74.7184 N.am      2 UNK        -0.4687 
     65 C         -80.8384   24.8976  -73.5902 C.2       1 UNK         0.5165 
     66 O         -79.9656   24.0240  -73.5346 O.2       1 UNK        -0.5079 
     67 H67       -80.5526   24.3906  -68.0625 H         1 UNK         0.0900 
     68 H68       -81.0046   22.8738  -68.8459 H         1 UNK         0.0900 
     69 H69       -79.5058   23.6891  -69.2974 H         1 UNK         0.0900 
     70 H70       -79.7072   24.6491  -71.3051 H         1 UNK         0.2959 
     71 H71       -82.3086   25.6741  -72.2595 H         1 UNK         0.1079 
     72 H72       -79.6507   27.1929  -72.5619 H         1 UNK         0.0837 
     73 H73       -81.1589   27.6296  -73.3101 H         1 UNK         0.0837 
     74 H74       -79.7221   29.1219  -69.3669 H         1 UNK         0.0685 
     75 H75       -78.9462   27.8182  -70.2320 H         1 UNK         0.0685 
     76 H76       -80.2269   29.8392  -72.8518 H         1 UNK         0.1434 
     77 H77       -76.7838   32.3276  -73.2709 H         1 UNK         0.1329 
     78 H78       -77.2288   29.8848  -69.7758 H         1 UNK         0.1335 
     79 H79       -75.6065   32.8213  -70.9501 H         1 UNK         0.0680 
     80 H80       -75.4297   31.4640  -69.8667 H         1 UNK         0.0680 
     81 H81       -74.0313   29.3965  -70.2790 H         1 UNK         0.1032 
     82 H82       -74.9243   28.8887  -71.6951 H         1 UNK         0.1032 
     83 H83       -71.9040   29.3662  -71.6615 H         1 UNK         0.0461 
     84 H84       -71.4894   26.6026  -72.8901 H         1 UNK         0.3453 
     85 H85       -71.5972   25.5511  -71.4955 H         1 UNK         0.3453 
     86 H86       -73.5429   27.9826  -73.7377 H         1 UNK         0.2984 
     87 H87       -73.1188   29.2765  -76.0688 H         1 UNK         0.0554 
     88 H88       -70.9670   30.3740  -76.6213 H         1 UNK         0.0847 
     89 H89       -71.2563   29.0312  -77.7143 H         1 UNK         0.0847 
     90 H90       -70.0998   28.8614  -76.3943 H         1 UNK         0.0847 
     91 H91       -73.2415   27.0875  -76.4448 H         1 UNK         0.3141 
     92 H92       -71.1283   24.3695  -76.1698 H         1 UNK         0.0743 
     93 H93       -73.3273   24.8137  -74.1078 H         1 UNK         0.0784 
     94 H94       -73.0000   23.2336  -74.8272 H         1 UNK         0.0784 
     95 H95       -71.7704   24.0483  -73.8723 H         1 UNK         0.0784 
     96 H96       -73.9710   24.5770  -76.6653 H         1 UNK         0.3213 
     97 H97       -73.4537   24.9416  -80.2199 H         1 UNK         0.0855 
     98 H98       -74.5897   22.8005  -78.3462 H         1 UNK         0.0814 
     99 H99       -73.3405   22.5652  -79.5585 H         1 UNK         0.0814 
    100 H100      -74.9714   22.9849  -80.0555 H         1 UNK         0.0814 
    101 H101      -75.4898   25.2379  -78.0291 H         1 UNK         0.3105 
    102 H102      -76.8701   28.0640  -79.6975 H         1 UNK         0.0547 
    103 H103      -77.9648   26.2148  -80.9549 H         1 UNK         0.0837 
    104 H104      -78.1263   25.2808  -79.4755 H         1 UNK         0.0837 
    105 H105      -78.9957   26.8015  -79.6606 H         1 UNK         0.0837 
    106 H106      -77.8600   26.7105  -77.4355 H         1 UNK         0.3020 
    107 H107      -76.2628   28.9157  -75.0896 H         1 UNK         0.1245 
    108 H108      -78.8896   28.8775  -74.8023 H         1 UNK         0.0781 
    109 H109      -78.9651   28.6781  -76.5175 H         1 UNK         0.0781 
    110 H110      -80.1106   31.2986  -74.7006 H         1 UNK         0.0836 
    111 H111      -79.0114   32.6508  -74.6272 H         1 UNK         0.0836 
    112 H112      -77.9301   26.4738  -75.1800 H         1 UNK         0.3022 
    113 H113      -75.4403   24.5072  -73.6254 H         1 UNK         0.0747 
    114 H114      -77.2557   24.0281  -71.9816 H         1 UNK         0.0793 
    115 H115      -76.4208   25.5317  -71.6197 H         1 UNK         0.0793 
    116 H116      -78.0074   25.5771  -72.3661 H         1 UNK         0.0793 
    117 H117      -78.1349   23.9583  -74.3781 H         1 UNK         0.3047 
    118 H118      -77.6119   23.6091  -77.8654 H         1 UNK         0.0822 
    119 H119      -78.1455   21.2062  -77.6199 H         1 UNK         0.0807 
    120 H120      -77.7274   21.2555  -75.9063 H         1 UNK         0.0807 
    121 H121      -76.4869   21.4987  -77.1281 H         1 UNK         0.0807 
    122 H122      -79.7581   22.6501  -76.3282 H         1 UNK         0.2946 
    123 H123      -81.7975   25.3282  -76.7630 H         1 UNK         0.1144 
    124 H124      -83.0447   23.3697  -75.9352 H         1 UNK         0.0793 
    125 H125      -81.5686   22.5776  -75.4082 H         1 UNK         0.0793 
    126 H126      -81.8740   22.8440  -77.1260 H         1 UNK         0.0793 
    127 H127      -82.1518   25.9977  -74.6699 H         1 UNK         0.2896 
@<TRIPOS>BOND
     1    1    2 1    
     2    1   67 1    
     3    1   68 1    
     4    1   69 1    
     5    2    3 2    
     6    2    4 am   BACKBONE|DICT|INTERRES
     7    4    5 1    
     8    4   70 1    
     9    5    6 1    
    10    5   65 1    
    11    5   71 1    
    12    6    7 1    
    13    6   72 1    
    14    6   73 1    
    15    7    8 1    
    16    8    9 1    
    17    8   74 1    
    18    8   75 1    
    19    9   10 ar   
    20    9   14 ar   
    21   10   11 ar   
    22   10   76 1    
    23   11   12 ar   
    24   11   48 1    
    25   12   13 ar   
    26   12   77 1    
    27   13   14 ar   
    28   13   15 1    
    29   14   78 1    
    30   15   16 1    
    31   15   79 1    
    32   15   80 1    
    33   16   17 1    
    34   17   18 1    
    35   17   81 1    
    36   17   82 1    
    37   18   19 1    
    38   18   22 1    
    39   18   83 1    
    40   19   20 am   BACKBONE|DICT|INTERRES
    41   19   21 2    
    42   20   84 1    
    43   20   85 1    
    44   22   23 am   BACKBONE|DICT|INTERRES
    45   22   86 1    
    46   23   24 2    
    47   23   25 1    
    48   25   26 1    
    49   25   27 1    
    50   25   87 1    
    51   26   88 1    
    52   26   89 1    
    53   26   90 1    
    54   27   28 am   BACKBONE|DICT|INTERRES
    55   27   91 1    
    56   28   29 2    
    57   28   30 1    
    58   30   31 1    
    59   30   32 1    
    60   30   92 1    
    61   31   93 1    
    62   31   94 1    
    63   31   95 1    
    64   32   33 am   BACKBONE|DICT|INTERRES
    65   32   96 1    
    66   33   34 2    
    67   33   35 1    
    68   35   36 1    
    69   35   37 1    
    70   35   97 1    
    71   36   98 1    
    72   36   99 1    
    73   36  100 1    
    74   37   38 am   BACKBONE|DICT|INTERRES
    75   37  101 1    
    76   38   39 2    
    77   38   40 1    
    78   40   41 1    
    79   40   42 1    
    80   40  102 1    
    81   41  103 1    
    82   41  104 1    
    83   41  105 1    
    84   42   43 am   BACKBONE|DICT|INTERRES
    85   42  106 1    
    86   43   44 2    
    87   43   45 1    
    88   45   46 1    
    89   45   49 1    
    90   45  107 1    
    91   46   47 1    
    92   46  108 1    
    93   46  109 1    
    94   47   48 1    
    95   48  110 1    
    96   48  111 1    
    97   49   50 am   BACKBONE|DICT|INTERRES
    98   49  112 1    
    99   50   51 2    
   100   50   52 1    
   101   52   53 1    
   102   52   54 1    
   103   52  113 1    
   104   53  114 1    
   105   53  115 1    
   106   53  116 1    
   107   54   55 am   BACKBONE|DICT|INTERRES
   108   54  117 1    
   109   55   56 2    
   110   55   57 1    
   111   57   58 1    
   112   57   59 1    
   113   57  118 1    
   114   58  119 1    
   115   58  120 1    
   116   58  121 1    
   117   59   60 am   BACKBONE|DICT|INTERRES
   118   59  122 1    
   119   60   61 2    
   120   60   62 1    
   121   62   63 1    
   122   62   64 1    
   123   62  123 1    
   124   63  124 1    
   125   63  125 1    
   126   63  126 1    
   127   64   65 am   BACKBONE|DICT|INTERRES
   128   64  127 1    
   129   65   66 2    
@<TRIPOS>SUBSTRUCTURE
     1 UNK         1 GROUP             0       ****    0 ROOT    
