@<TRIPOS>MOLECULE
3R135
127   129    1
SMALL
USER_CHARGES


@<TRIPOS>ATOM
      1 CA        -84.9266   29.5826  -76.7559 C.3       0 UNK        -0.1998 
      2 C         -83.4798   29.1166  -76.8188 C.2       0 UNK         0.4909 
      3 O         -82.8755   29.1409  -77.8913 O.2       0 UNK        -0.5240 
      4 N         -82.9204   28.6966  -75.6762 N.am      1 UNK        -0.4739 
      5 CA        -81.5425   28.2030  -75.5441 C.3       1 UNK         0.0864 
      6 C6        -81.1167   28.0965  -74.0578 C.3       11 UNK        -0.0881 
      7 S7        -80.9399   29.7459  -73.3065 S.3       11 UNK        -0.2682 
      8 C8        -80.6494   29.3258  -71.5595 C.3       11 UNK         0.0289 
      9 C9        -79.1931   28.9887  -71.2598 C.ar      11 UNK        -0.0687 
     10 C10       -78.8361   27.7107  -70.8176 C.ar      11 UNK        -0.0823 
     11 C11       -77.5190   27.4334  -70.4347 C.ar      11 UNK        -0.0830 
     12 C12       -76.5513   28.4381  -70.5149 C.ar      11 UNK        -0.1021 
     13 C13       -76.8893   29.7133  -70.9765 C.ar      11 UNK        -0.0753 
     14 C14       -78.2113   29.9813  -71.3475 C.ar      11 UNK        -0.0933 
     15 C15       -75.8418   30.8169  -71.0264 C.3       11 UNK         0.0166 
     16 S16       -74.7429   30.6512  -72.4670 S.3       11 UNK        -0.2615 
     17 C17       -73.4842   29.4774  -71.8503 C.3       11 UNK        -0.0865 
     18 CA        -72.1206   29.6531  -72.5674 C.3       10 UNK         0.0862 
     19 C         -71.0357   28.7414  -71.9379 C.2       10 UNK         0.5551 
     20 N         -70.3627   29.2156  -70.8984 N.am      10 UNK        -0.7319 
     21 O         -70.8224   27.6026  -72.3483 O.2       10 UNK        -0.5018 
     22 N         -72.2485   29.4161  -74.0102 N.am      10 UNK        -0.4509 
     23 C         -71.6302   30.1261  -74.9596 C.2       10 UNK         0.4899 
     24 O         -70.8320   31.0358  -74.7248 O.2       10 UNK        -0.4839 
     25 CA        -72.0037   29.7903  -76.4150 C.3       9 UNK         0.0222 
     26 CB        -71.1018   30.4857  -77.4585 C.3       9 UNK        -0.1966 
     27 N         -72.1053   28.3495  -76.6660 N.am      9 UNK        -0.4218 
     28 C         -71.1156   27.4428  -76.6510 C.2       9 UNK         0.5020 
     29 O         -69.9376   27.7239  -76.4240 O.2       9 UNK        -0.5274 
     30 CA        -71.4774   25.9703  -76.9439 C.3       8 UNK         0.0270 
     31 CB        -70.9995   25.0534  -75.8040 C.3       8 UNK        -0.1976 
     32 N         -72.9078   25.7404  -77.1695 N.am      8 UNK        -0.4313 
     33 C         -73.5771   26.0208  -78.2962 C.2       8 UNK         0.5041 
     34 O         -73.0411   26.4353  -79.3241 O.2       8 UNK        -0.5577 
     35 CA        -75.1104   25.8688  -78.2506 C.3       7 UNK         0.0284 
     36 CB        -75.5270   24.4358  -78.6140 C.3       7 UNK        -0.1958 
     37 N         -75.6874   26.2440  -76.9531 N.am      7 UNK        -0.4454 
     38 C         -75.6174   27.4758  -76.4245 C.2       7 UNK         0.5089 
     39 O         -75.1066   28.4353  -77.0015 O.2       7 UNK        -0.5125 
     40 CA        -76.1353   27.6620  -74.9898 C.3       6 UNK         0.0408 
     41 CB        -77.6367   27.9526  -74.9678 C.3       6 UNK        -0.1791 
     42 N         -75.8465   26.5111  -74.1359 N.am      6 UNK        -0.4762 
     43 C         -74.6165   26.1836  -73.7248 C.2       6 UNK         0.5007 
     44 O         -73.6102   26.8273  -74.0208 O.2       6 UNK        -0.5032 
     45 CA        -74.4846   24.8973  -72.8877 C.3       5 UNK         0.0783 
     46 C46       -74.9675   25.0956  -71.4246 C.3       11 UNK        -0.0857 
     47 S47       -76.7727   24.8798  -71.2013 S.3       11 UNK        -0.2512 
     48 C48       -77.1586   26.0641  -69.8800 C.3       11 UNK         0.0225 
     49 N         -75.1357   23.7518  -73.5297 N.am      5 UNK        -0.4615 
     50 C         -74.8426   23.2522  -74.7349 C.2       4 UNK         0.5053 
     51 O         -73.9232   23.6598  -75.4408 O.2       4 UNK        -0.5105 
     52 CA        -75.7537   22.1283  -75.2556 C.3       4 UNK         0.0263 
     53 CB        -75.2220   20.7582  -74.8061 C.3       4 UNK        -0.1981 
     54 N         -77.1592   22.2641  -74.8548 N.am      4 UNK        -0.4224 
     55 C         -77.9568   23.2946  -75.1694 C.2       3 UNK         0.4895 
     56 O         -77.5843   24.2973  -75.7854 O.2       3 UNK        -0.5091 
     57 CA        -79.4062   23.1958  -74.6837 C.3       3 UNK         0.0250 
     58 CB        -79.5512   23.7661  -73.2620 C.3       3 UNK        -0.1996 
     59 N         -80.2691   23.9373  -75.5966 N.am      3 UNK        -0.4254 
     60 C         -81.5574   23.6728  -75.8398 C.2       2 UNK         0.5004 
     61 O         -82.1748   22.7475  -75.3083 O.2       2 UNK        -0.5226 
     62 CA        -82.2828   24.6290  -76.8085 C.3       2 UNK         0.0269 
     63 CB        -83.7137   24.1667  -77.1434 C.3       2 UNK        -0.1926 
     64 N         -82.3426   25.9867  -76.2605 N.am      2 UNK        -0.4687 
     65 C         -81.3248   26.8584  -76.2651 C.2       1 UNK         0.5165 
     66 O         -80.2414   26.6253  -76.8016 O.2       1 UNK        -0.5079 
     67 H67       -85.0012   30.6193  -77.0833 H         1 UNK         0.0900 
     68 H68       -85.5460   28.9722  -77.4125 H         1 UNK         0.0900 
     69 H69       -85.3335   29.5160  -75.7471 H         1 UNK         0.0900 
     70 H70       -83.4570   28.7287  -74.8209 H         1 UNK         0.2959 
     71 H71       -80.8838   28.9211  -76.0387 H         1 UNK         0.1079 
     72 H72       -80.1699   27.5691  -73.9450 H         1 UNK         0.0837 
     73 H73       -81.8476   27.5177  -73.4898 H         1 UNK         0.0837 
     74 H74       -81.3118   28.5107  -71.2639 H         1 UNK         0.0685 
     75 H75       -80.9376   30.1826  -70.9488 H         1 UNK         0.0685 
     76 H76       -79.5894   26.9388  -70.7368 H         1 UNK         0.1434 
     77 H77       -75.5381   28.2331  -70.2006 H         1 UNK         0.1329 
     78 H78       -78.4861   30.9721  -71.6830 H         1 UNK         0.1335 
     79 H79       -76.3294   31.7915  -71.0807 H         1 UNK         0.0680 
     80 H80       -75.2608   30.8264  -70.1032 H         1 UNK         0.0680 
     81 H81       -73.8607   28.4623  -71.9731 H         1 UNK         0.1032 
     82 H82       -73.3598   29.6278  -70.7765 H         1 UNK         0.1032 
     83 H83       -71.8074   30.6874  -72.4094 H         1 UNK         0.0461 
     84 H84       -70.5298   30.1458  -70.5472 H         1 UNK         0.3453 
     85 H85       -69.6621   28.6354  -70.4639 H         1 UNK         0.3453 
     86 H86       -72.8080   28.6079  -74.2655 H         1 UNK         0.2984 
     87 H87       -73.0116   30.1830  -76.5553 H         1 UNK         0.0554 
     88 H88       -71.1577   31.5704  -77.3597 H         1 UNK         0.0847 
     89 H89       -71.4073   30.2383  -78.4751 H         1 UNK         0.0847 
     90 H90       -70.0543   30.2058  -77.3443 H         1 UNK         0.0847 
     91 H91       -73.0463   28.0204  -76.8506 H         1 UNK         0.3141 
     92 H92       -70.9396   25.6867  -77.8507 H         1 UNK         0.0743 
     93 H93       -69.9242   25.1459  -75.6467 H         1 UNK         0.0784 
     94 H94       -71.4886   25.2985  -74.8604 H         1 UNK         0.0784 
     95 H95       -71.2032   24.0055  -76.0252 H         1 UNK         0.0784 
     96 H96       -73.4183   25.3195  -76.3977 H         1 UNK         0.3213 
     97 H97       -75.5309   26.5435  -78.9994 H         1 UNK         0.0855 
     98 H98       -75.0762   23.7050  -77.9443 H         1 UNK         0.0814 
     99 H99       -75.2082   24.1853  -79.6266 H         1 UNK         0.0814 
    100 H100      -76.6093   24.3105  -78.5725 H         1 UNK         0.0814 
    101 H101      -76.1775   25.5200  -76.4337 H         1 UNK         0.3105 
    102 H102      -75.6253   28.5315  -74.5695 H         1 UNK         0.0547 
    103 H103      -78.2110   27.0741  -75.2591 H         1 UNK         0.0837 
    104 H104      -77.8961   28.7620  -75.6514 H         1 UNK         0.0837 
    105 H105      -77.9533   28.2565  -73.9701 H         1 UNK         0.0837 
    106 H106      -76.6205   25.9152  -73.8783 H         1 UNK         0.3020 
    107 H107      -73.4155   24.6741  -72.8536 H         1 UNK         0.1245 
    108 H108      -74.6524   26.0659  -71.0364 H         1 UNK         0.0781 
    109 H109      -74.4792   24.3574  -70.7868 H         1 UNK         0.0781 
    110 H110      -76.3227   26.1330  -69.1821 H         1 UNK         0.0836 
    111 H111      -77.9980   25.6755  -69.3014 H         1 UNK         0.0836 
    112 H112      -75.9202   23.3640  -73.0262 H         1 UNK         0.3022 
    113 H113      -75.7234   22.1591  -76.3456 H         1 UNK         0.0747 
    114 H114      -75.7953   19.9440  -75.2497 H         1 UNK         0.0793 
    115 H115      -74.1834   20.6238  -75.1123 H         1 UNK         0.0793 
    116 H116      -75.2591   20.6449  -73.7218 H         1 UNK         0.0793 
    117 H117      -77.5509   21.4932  -74.3325 H         1 UNK         0.3047 
    118 H118      -79.7003   22.1438  -74.6864 H         1 UNK         0.0822 
    119 H119      -80.5813   23.7032  -72.9112 H         1 UNK         0.0807 
    120 H120      -79.2465   24.8127  -73.2145 H         1 UNK         0.0807 
    121 H121      -78.9370   23.2108  -72.5525 H         1 UNK         0.0807 
    122 H122      -79.8227   24.7121  -76.0804 H         1 UNK         0.2946 
    123 H123      -81.7113   24.6425  -77.7399 H         1 UNK         0.1144 
    124 H124      -84.1834   24.8284  -77.8715 H         1 UNK         0.0793 
    125 H125      -84.3489   24.1383  -76.2571 H         1 UNK         0.0793 
    126 H126      -83.7093   23.1646  -77.5744 H         1 UNK         0.0793 
    127 H127      -83.1958   26.2501  -75.7890 H         1 UNK         0.2896 
@<TRIPOS>BOND
     1    1    2 1    
     2    1   67 1    
     3    1   68 1    
     4    1   69 1    
     5    2    3 2    
     6    2    4 am   BACKBONE|DICT|INTERRES
     7    4    5 1    
     8    4   70 1    
     9    5    6 1    
    10    5   65 1    
    11    5   71 1    
    12    6    7 1    
    13    6   72 1    
    14    6   73 1    
    15    7    8 1    
    16    8    9 1    
    17    8   74 1    
    18    8   75 1    
    19    9   10 ar   
    20    9   14 ar   
    21   10   11 ar   
    22   10   76 1    
    23   11   12 ar   
    24   11   48 1    
    25   12   13 ar   
    26   12   77 1    
    27   13   14 ar   
    28   13   15 1    
    29   14   78 1    
    30   15   16 1    
    31   15   79 1    
    32   15   80 1    
    33   16   17 1    
    34   17   18 1    
    35   17   81 1    
    36   17   82 1    
    37   18   19 1    
    38   18   22 1    
    39   18   83 1    
    40   19   20 am   BACKBONE|DICT|INTERRES
    41   19   21 2    
    42   20   84 1    
    43   20   85 1    
    44   22   23 am   BACKBONE|DICT|INTERRES
    45   22   86 1    
    46   23   24 2    
    47   23   25 1    
    48   25   26 1    
    49   25   27 1    
    50   25   87 1    
    51   26   88 1    
    52   26   89 1    
    53   26   90 1    
    54   27   28 am   BACKBONE|DICT|INTERRES
    55   27   91 1    
    56   28   29 2    
    57   28   30 1    
    58   30   31 1    
    59   30   32 1    
    60   30   92 1    
    61   31   93 1    
    62   31   94 1    
    63   31   95 1    
    64   32   33 am   BACKBONE|DICT|INTERRES
    65   32   96 1    
    66   33   34 2    
    67   33   35 1    
    68   35   36 1    
    69   35   37 1    
    70   35   97 1    
    71   36   98 1    
    72   36   99 1    
    73   36  100 1    
    74   37   38 am   BACKBONE|DICT|INTERRES
    75   37  101 1    
    76   38   39 2    
    77   38   40 1    
    78   40   41 1    
    79   40   42 1    
    80   40  102 1    
    81   41  103 1    
    82   41  104 1    
    83   41  105 1    
    84   42   43 am   BACKBONE|DICT|INTERRES
    85   42  106 1    
    86   43   44 2    
    87   43   45 1    
    88   45   46 1    
    89   45   49 1    
    90   45  107 1    
    91   46   47 1    
    92   46  108 1    
    93   46  109 1    
    94   47   48 1    
    95   48  110 1    
    96   48  111 1    
    97   49   50 am   BACKBONE|DICT|INTERRES
    98   49  112 1    
    99   50   51 2    
   100   50   52 1    
   101   52   53 1    
   102   52   54 1    
   103   52  113 1    
   104   53  114 1    
   105   53  115 1    
   106   53  116 1    
   107   54   55 am   BACKBONE|DICT|INTERRES
   108   54  117 1    
   109   55   56 2    
   110   55   57 1    
   111   57   58 1    
   112   57   59 1    
   113   57  118 1    
   114   58  119 1    
   115   58  120 1    
   116   58  121 1    
   117   59   60 am   BACKBONE|DICT|INTERRES
   118   59  122 1    
   119   60   61 2    
   120   60   62 1    
   121   62   63 1    
   122   62   64 1    
   123   62  123 1    
   124   63  124 1    
   125   63  125 1    
   126   63  126 1    
   127   64   65 am   BACKBONE|DICT|INTERRES
   128   64  127 1    
   129   65   66 2    
@<TRIPOS>SUBSTRUCTURE
     1 UNK         1 GROUP             0       ****    0 ROOT    
