@<TRIPOS>MOLECULE
3R135
127   129    1
SMALL
USER_CHARGES


@<TRIPOS>ATOM
      1 CA        -73.0392   26.0338  -70.9061 C.3       0 UNK        -0.1998 
      2 C         -74.5088   25.7175  -70.6804 C.2       0 UNK         0.4909 
      3 O         -74.8229   24.8967  -69.8168 O.2       0 UNK        -0.5240 
      4 N         -75.4133   26.3679  -71.4251 N.am      1 UNK        -0.4739 
      5 CA        -76.8598   26.1377  -71.3250 C.3       1 UNK         0.0864 
      6 C6        -77.6747   27.3214  -71.9023 C.3       11 UNK        -0.0881 
      7 S7        -79.4195   27.2834  -71.3502 S.3       11 UNK        -0.2682 
      8 C8        -79.8766   29.0429  -71.3401 C.3       11 UNK         0.0289 
      9 C9        -79.6696   29.6896  -72.7004 C.ar      11 UNK        -0.0687 
     10 C10       -80.3978   29.2570  -73.8125 C.ar      11 UNK        -0.0823 
     11 C11       -80.1916   29.8420  -75.0649 C.ar      11 UNK        -0.0830 
     12 C12       -79.2444   30.8653  -75.1976 C.ar      11 UNK        -0.1021 
     13 C13       -78.5121   31.3064  -74.0915 C.ar      11 UNK        -0.0753 
     14 C14       -78.7438   30.7240  -72.8431 C.ar      11 UNK        -0.0933 
     15 C15       -77.4849   32.4217  -74.2379 C.3       11 UNK         0.0166 
     16 S16       -75.7957   31.7732  -74.4576 S.3       11 UNK        -0.2615 
     17 C17       -75.4541   31.0756  -72.8026 C.3       11 UNK        -0.0865 
     18 CA        -73.9543   31.1173  -72.3918 C.3       10 UNK         0.0862 
     19 C         -73.7318   30.6282  -70.9262 C.2       10 UNK         0.5551 
     20 N         -72.6333   29.9515  -70.6132 N.am      10 UNK        -0.7319 
     21 O         -74.5509   30.8941  -70.0499 O.2       10 UNK        -0.5018 
     22 N         -73.0599   30.5021  -73.3888 N.am      10 UNK        -0.4509 
     23 C         -73.0850   29.2246  -73.7870 C.2       10 UNK         0.4899 
     24 O         -73.8823   28.3865  -73.3586 O.2       10 UNK        -0.4839 
     25 CA        -72.0399   28.8559  -74.8563 C.3       9 UNK         0.0222 
     26 CB        -70.5922   29.0338  -74.3475 C.3       9 UNK        -0.1966 
     27 N         -72.2675   27.5219  -75.4217 N.am      9 UNK        -0.4218 
     28 C         -72.0618   26.3230  -74.8524 C.2       9 UNK         0.5020 
     29 O         -71.4528   26.1570  -73.7951 O.2       9 UNK        -0.5274 
     30 CA        -72.6378   25.0866  -75.5712 C.3       8 UNK         0.0270 
     31 CB        -73.5186   24.2630  -74.6169 C.3       8 UNK        -0.1976 
     32 N         -73.4274   25.4420  -76.7542 N.am      8 UNK        -0.4313 
     33 C         -72.9474   25.5004  -78.0040 C.2       8 UNK         0.5041 
     34 O         -71.8093   25.1506  -78.3176 O.2       8 UNK        -0.5577 
     35 CA        -73.8752   26.0851  -79.0855 C.3       7 UNK         0.0284 
     36 CB        -74.5475   24.9618  -79.8902 C.3       7 UNK        -0.1958 
     37 N         -74.8887   27.0054  -78.5496 N.am      7 UNK        -0.4454 
     38 C         -74.5966   28.2071  -78.0238 C.2       7 UNK         0.5089 
     39 O         -73.4472   28.6396  -77.9458 O.2       7 UNK        -0.5125 
     40 CA        -75.7415   29.0716  -77.4656 C.3       6 UNK         0.0408 
     41 CB        -76.0083   30.2790  -78.3773 C.3       6 UNK        -0.1791 
     42 N         -76.9930   28.3464  -77.2593 N.am      6 UNK        -0.4762 
     43 C         -77.2086   27.4318  -76.3091 C.2       6 UNK         0.5007 
     44 O         -76.3360   27.0768  -75.5138 O.2       6 UNK        -0.5032 
     45 CA        -78.5997   26.7482  -76.2603 C.3       5 UNK         0.0783 
     46 C46       -79.6451   27.1449  -77.3571 C.3       11 UNK        -0.0857 
     47 S47       -79.9886   28.9119  -77.6768 S.3       11 UNK        -0.2512 
     48 C48       -81.0220   29.3975  -76.2618 C.3       11 UNK         0.0225 
     49 N         -78.4152   25.2900  -76.2318 N.am      5 UNK        -0.4615 
     50 C         -77.8192   24.5660  -77.1964 C.2       4 UNK         0.5053 
     51 O         -77.3556   25.0595  -78.2253 O.2       4 UNK        -0.5105 
     52 CA        -77.7053   23.0424  -77.0058 C.3       4 UNK         0.0263 
     53 CB        -76.3004   22.6756  -76.5057 C.3       4 UNK        -0.1981 
     54 N         -78.6888   22.4890  -76.0786 N.am      4 UNK        -0.4224 
     55 C         -80.0139   22.4472  -76.2731 C.2       3 UNK         0.4895 
     56 O         -80.5632   22.7682  -77.3273 O.2       3 UNK        -0.5091 
     57 CA        -80.8771   21.9877  -75.0804 C.3       3 UNK         0.0250 
     58 CB        -81.4062   20.5634  -75.3164 C.3       3 UNK        -0.1996 
     59 N         -80.1891   22.0346  -73.7818 N.am      3 UNK        -0.4254 
     60 C         -79.7110   23.1431  -73.1968 C.2       2 UNK         0.5004 
     61 O         -79.8249   24.2677  -73.6927 O.2       2 UNK        -0.5226 
     62 CA        -78.9851   22.9454  -71.8489 C.3       2 UNK         0.0269 
     63 CB        -78.0153   21.7409  -71.8611 C.3       2 UNK        -0.1926 
     64 N         -78.2983   24.1596  -71.3897 N.am      2 UNK        -0.4687 
     65 C         -77.2642   24.7908  -71.9684 C.2       1 UNK         0.5165 
     66 O         -76.6664   24.3739  -72.9636 O.2       1 UNK        -0.5079 
     67 H67       -72.5491   25.2014  -71.4098 H         1 UNK         0.0900 
     68 H68       -72.5378   26.1992  -69.9531 H         1 UNK         0.0900 
     69 H69       -72.9014   26.9267  -71.5124 H         1 UNK         0.0900 
     70 H70       -75.1007   26.9985  -72.1562 H         1 UNK         0.2959 
     71 H71       -77.0891   26.0753  -70.2583 H         1 UNK         0.1079 
     72 H72       -77.6361   27.3350  -72.9935 H         1 UNK         0.0837 
     73 H73       -77.2355   28.2638  -71.5713 H         1 UNK         0.0837 
     74 H74       -80.9252   29.1358  -71.0545 H         1 UNK         0.0685 
     75 H75       -79.2996   29.5540  -70.5677 H         1 UNK         0.0685 
     76 H76       -81.1237   28.4635  -73.6962 H         1 UNK         0.1434 
     77 H77       -79.0797   31.3211  -76.1645 H         1 UNK         0.1329 
     78 H78       -78.1983   31.0697  -71.9775 H         1 UNK         0.1335 
     79 H79       -77.5171   33.0822  -73.3700 H         1 UNK         0.0680 
     80 H80       -77.7322   33.0439  -75.0993 H         1 UNK         0.0680 
     81 H81       -75.8365   30.0542  -72.7724 H         1 UNK         0.1032 
     82 H82       -76.0332   31.6419  -72.0727 H         1 UNK         0.1032 
     83 H83       -73.6646   32.1684  -72.3703 H         1 UNK         0.0461 
     84 H84       -71.9478   29.7395  -71.3191 H         1 UNK         0.3453 
     85 H85       -72.4906   29.6554  -69.6609 H         1 UNK         0.3453 
     86 H86       -72.3751   31.1234  -73.7940 H         1 UNK         0.2984 
     87 H87       -72.1854   29.5486  -75.6863 H         1 UNK         0.0554 
     88 H88       -69.8676   28.6849  -75.0831 H         1 UNK         0.0847 
     89 H89       -70.4144   28.4907  -73.4190 H         1 UNK         0.0847 
     90 H90       -70.3679   30.0826  -74.1520 H         1 UNK         0.0847 
     91 H91       -72.7532   27.5370  -76.3104 H         1 UNK         0.3141 
     92 H92       -71.7885   24.4653  -75.8627 H         1 UNK         0.0743 
     93 H93       -74.4127   24.8140  -74.3222 H         1 UNK         0.0784 
     94 H94       -73.8285   23.3270  -75.0791 H         1 UNK         0.0784 
     95 H95       -72.9824   24.0008  -73.7041 H         1 UNK         0.0784 
     96 H96       -74.3709   25.7673  -76.5828 H         1 UNK         0.3213 
     97 H97       -73.2479   26.6558  -79.7740 H         1 UNK         0.0855 
     98 H98       -75.1135   24.2853  -79.2511 H         1 UNK         0.0814 
     99 H99       -73.8007   24.3601  -80.4099 H         1 UNK         0.0814 
    100 H100      -75.2256   25.3596  -80.6453 H         1 UNK         0.0814 
    101 H101      -75.8507   26.6843  -78.5493 H         1 UNK         0.3105 
    102 H102      -75.4116   29.4486  -76.4951 H         1 UNK         0.0547 
    103 H103      -76.3641   29.9721  -79.3615 H         1 UNK         0.0837 
    104 H104      -76.7525   30.9459  -77.9412 H         1 UNK         0.0837 
    105 H105      -75.1002   30.8650  -78.5253 H         1 UNK         0.0837 
    106 H106      -77.7705   28.5885  -77.8611 H         1 UNK         0.3020 
    107 H107      -79.0189   27.0222  -75.2908 H         1 UNK         0.1245 
    108 H108      -79.3451   26.7305  -78.3202 H         1 UNK         0.0781 
    109 H109      -80.5957   26.6598  -77.1296 H         1 UNK         0.0781 
    110 H110      -81.6570   30.2304  -76.5665 H         1 UNK         0.0836 
    111 H111      -81.6959   28.5800  -76.0009 H         1 UNK         0.0836 
    112 H112      -78.7427   24.8223  -75.3925 H         1 UNK         0.3022 
    113 H113      -77.8597   22.5779  -77.9819 H         1 UNK         0.0747 
    114 H114      -76.1597   21.5953  -76.4687 H         1 UNK         0.0793 
    115 H115      -75.5275   23.0800  -77.1603 H         1 UNK         0.0793 
    116 H116      -76.1241   23.0729  -75.5053 H         1 UNK         0.0793 
    117 H117      -78.3404   22.2024  -75.1761 H         1 UNK         0.3047 
    118 H118      -81.7306   22.6668  -75.0255 H         1 UNK         0.0822 
    119 H119      -82.0936   20.2581  -74.5272 H         1 UNK         0.0807 
    120 H120      -80.5965   19.8337  -75.3599 H         1 UNK         0.0807 
    121 H121      -81.9520   20.5002  -76.2590 H         1 UNK         0.0807 
    122 H122      -80.0659   21.1500  -73.3101 H         1 UNK         0.2946 
    123 H123      -79.7640   22.7433  -71.1118 H         1 UNK         0.1144 
    124 H124      -77.4544   21.6784  -70.9284 H         1 UNK         0.0793 
    125 H125      -77.2935   21.8052  -72.6761 H         1 UNK         0.0793 
    126 H126      -78.5484   20.7962  -71.9700 H         1 UNK         0.0793 
    127 H127      -78.7476   24.6300  -70.6160 H         1 UNK         0.2896 
@<TRIPOS>BOND
     1    1    2 1    
     2    1   67 1    
     3    1   68 1    
     4    1   69 1    
     5    2    3 2    
     6    2    4 am   BACKBONE|DICT|INTERRES
     7    4    5 1    
     8    4   70 1    
     9    5    6 1    
    10    5   65 1    
    11    5   71 1    
    12    6    7 1    
    13    6   72 1    
    14    6   73 1    
    15    7    8 1    
    16    8    9 1    
    17    8   74 1    
    18    8   75 1    
    19    9   10 ar   
    20    9   14 ar   
    21   10   11 ar   
    22   10   76 1    
    23   11   12 ar   
    24   11   48 1    
    25   12   13 ar   
    26   12   77 1    
    27   13   14 ar   
    28   13   15 1    
    29   14   78 1    
    30   15   16 1    
    31   15   79 1    
    32   15   80 1    
    33   16   17 1    
    34   17   18 1    
    35   17   81 1    
    36   17   82 1    
    37   18   19 1    
    38   18   22 1    
    39   18   83 1    
    40   19   20 am   BACKBONE|DICT|INTERRES
    41   19   21 2    
    42   20   84 1    
    43   20   85 1    
    44   22   23 am   BACKBONE|DICT|INTERRES
    45   22   86 1    
    46   23   24 2    
    47   23   25 1    
    48   25   26 1    
    49   25   27 1    
    50   25   87 1    
    51   26   88 1    
    52   26   89 1    
    53   26   90 1    
    54   27   28 am   BACKBONE|DICT|INTERRES
    55   27   91 1    
    56   28   29 2    
    57   28   30 1    
    58   30   31 1    
    59   30   32 1    
    60   30   92 1    
    61   31   93 1    
    62   31   94 1    
    63   31   95 1    
    64   32   33 am   BACKBONE|DICT|INTERRES
    65   32   96 1    
    66   33   34 2    
    67   33   35 1    
    68   35   36 1    
    69   35   37 1    
    70   35   97 1    
    71   36   98 1    
    72   36   99 1    
    73   36  100 1    
    74   37   38 am   BACKBONE|DICT|INTERRES
    75   37  101 1    
    76   38   39 2    
    77   38   40 1    
    78   40   41 1    
    79   40   42 1    
    80   40  102 1    
    81   41  103 1    
    82   41  104 1    
    83   41  105 1    
    84   42   43 am   BACKBONE|DICT|INTERRES
    85   42  106 1    
    86   43   44 2    
    87   43   45 1    
    88   45   46 1    
    89   45   49 1    
    90   45  107 1    
    91   46   47 1    
    92   46  108 1    
    93   46  109 1    
    94   47   48 1    
    95   48  110 1    
    96   48  111 1    
    97   49   50 am   BACKBONE|DICT|INTERRES
    98   49  112 1    
    99   50   51 2    
   100   50   52 1    
   101   52   53 1    
   102   52   54 1    
   103   52  113 1    
   104   53  114 1    
   105   53  115 1    
   106   53  116 1    
   107   54   55 am   BACKBONE|DICT|INTERRES
   108   54  117 1    
   109   55   56 2    
   110   55   57 1    
   111   57   58 1    
   112   57   59 1    
   113   57  118 1    
   114   58  119 1    
   115   58  120 1    
   116   58  121 1    
   117   59   60 am   BACKBONE|DICT|INTERRES
   118   59  122 1    
   119   60   61 2    
   120   60   62 1    
   121   62   63 1    
   122   62   64 1    
   123   62  123 1    
   124   63  124 1    
   125   63  125 1    
   126   63  126 1    
   127   64   65 am   BACKBONE|DICT|INTERRES
   128   64  127 1    
   129   65   66 2    
@<TRIPOS>SUBSTRUCTURE
     1 UNK         1 GROUP             0       ****    0 ROOT    
