@<TRIPOS>MOLECULE
3R135
127   129    1
SMALL
USER_CHARGES


@<TRIPOS>ATOM
      1 CA        -84.4613   29.1697  -74.7982 C.3       0 UNK        -0.1998 
      2 C         -83.0342   28.6532  -74.6947 C.2       0 UNK         0.4909 
      3 O         -82.1510   29.1537  -75.3908 O.2       0 UNK        -0.5240 
      4 N         -82.8015   27.6595  -73.8258 N.am      1 UNK        -0.4739 
      5 CA        -81.4982   27.0171  -73.6225 C.3       1 UNK         0.0864 
      6 C6        -81.4832   26.1956  -72.3084 C.3       11 UNK        -0.0881 
      7 S7        -79.8165   25.6956  -71.7505 S.3       11 UNK        -0.2682 
      8 C8        -79.4227   26.9307  -70.4626 C.3       11 UNK         0.0289 
      9 C9        -78.3771   27.9182  -70.9583 C.ar      11 UNK        -0.0687 
     10 C10       -78.7512   28.9846  -71.7772 C.ar      11 UNK        -0.0823 
     11 C11       -77.7854   29.8320  -72.3274 C.ar      11 UNK        -0.0830 
     12 C12       -76.4375   29.6342  -72.0130 C.ar      11 UNK        -0.1021 
     13 C13       -76.0528   28.6016  -71.1496 C.ar      11 UNK        -0.0753 
     14 C14       -77.0297   27.7491  -70.6258 C.ar      11 UNK        -0.0933 
     15 C15       -74.5831   28.3661  -70.8218 C.3       11 UNK         0.0166 
     16 S16       -73.7587   29.8695  -70.2072 S.3       11 UNK        -0.2615 
     17 C17       -72.1009   29.2477  -69.7632 C.3       11 UNK        -0.0865 
     18 CA        -71.0423   29.4804  -70.8839 C.3       10 UNK         0.0862 
     19 C         -69.6178   29.7693  -70.3208 C.2       10 UNK         0.5551 
     20 N         -68.5520   29.2061  -70.8793 N.am      10 UNK        -0.7319 
     21 O         -69.4673   30.5368  -69.3732 O.2       10 UNK        -0.5018 
     22 N         -71.0462   28.3762  -71.8592 N.am      10 UNK        -0.4509 
     23 C         -71.6293   28.3886  -73.0616 C.2       10 UNK         0.4899 
     24 O         -72.2622   29.3475  -73.5100 O.2       10 UNK        -0.4839 
     25 CA        -71.4888   27.0886  -73.8794 C.3       9 UNK         0.0222 
     26 CB        -72.0756   25.8795  -73.1281 C.3       9 UNK        -0.1966 
     27 N         -72.1541   27.1959  -75.1777 N.am      9 UNK        -0.4218 
     28 C         -71.6334   27.7971  -76.2558 C.2       9 UNK         0.5020 
     29 O         -70.4851   28.2460  -76.2999 O.2       9 UNK        -0.5274 
     30 CA        -72.5575   27.9227  -77.4829 C.3       8 UNK         0.0270 
     31 CB        -71.8132   28.3403  -78.7696 C.3       8 UNK        -0.1976 
     32 N         -73.3749   26.7262  -77.7127 N.am      8 UNK        -0.4313 
     33 C         -72.9541   25.4838  -77.9987 C.2       8 UNK         0.5041 
     34 O         -71.7692   25.1762  -78.1370 O.2       8 UNK        -0.5577 
     35 CA        -74.0237   24.3811  -78.1484 C.3       7 UNK         0.0284 
     36 CB        -73.8897   23.3502  -77.0152 C.3       7 UNK        -0.1958 
     37 N         -75.4000   24.8853  -78.1690 N.am      7 UNK        -0.4454 
     38 C         -75.9659   25.5469  -79.1880 C.2       7 UNK         0.5089 
     39 O         -75.4184   25.7322  -80.2748 O.2       7 UNK        -0.5125 
     40 CA        -77.3574   26.1515  -78.9267 C.3       6 UNK         0.0408 
     41 CB        -78.4579   25.1285  -79.2367 C.3       6 UNK        -0.1791 
     42 N         -77.5103   26.6469  -77.5536 N.am      6 UNK        -0.4762 
     43 C         -76.8138   27.6707  -77.0349 C.2       6 UNK         0.5007 
     44 O         -75.9933   28.3293  -77.6734 O.2       6 UNK        -0.5032 
     45 CA        -77.0200   27.9630  -75.5384 C.3       5 UNK         0.0783 
     46 C46       -78.2318   28.9055  -75.3012 C.3       11 UNK        -0.0857 
     47 S47       -77.6896   30.6255  -75.0077 S.3       11 UNK        -0.2512 
     48 C48       -78.2068   30.9395  -73.2846 C.3       11 UNK         0.0225 
     49 N         -77.0831   26.7136  -74.7681 N.am      5 UNK        -0.4615 
     50 C         -75.9995   25.9651  -74.5168 C.2       4 UNK         0.5053 
     51 O         -74.8665   26.2769  -74.8875 O.2       4 UNK        -0.5105 
     52 CA        -76.1808   24.6403  -73.7559 C.3       4 UNK         0.0263 
     53 CB        -76.0237   24.8396  -72.2422 C.3       4 UNK        -0.1981 
     54 N         -77.4316   23.9248  -74.0146 N.am      4 UNK        -0.4224 
     55 C         -77.7879   23.3938  -75.1915 C.2       3 UNK         0.4895 
     56 O         -77.1831   23.6005  -76.2434 O.2       3 UNK        -0.5091 
     57 CA        -79.0099   22.4578  -75.1857 C.3       3 UNK         0.0250 
     58 CB        -79.1449   21.6426  -73.8836 C.3       3 UNK        -0.1996 
     59 N         -80.2213   23.2427  -75.3871 N.am      3 UNK        -0.4254 
     60 C         -80.7747   23.5153  -76.5746 C.2       2 UNK         0.5004 
     61 O         -80.4474   22.9627  -77.6247 O.2       2 UNK        -0.5226 
     62 CA        -81.8836   24.5883  -76.6119 C.3       2 UNK         0.0269 
     63 CB        -83.2435   23.9477  -76.9372 C.3       2 UNK        -0.1926 
     64 N         -82.0267   25.4062  -75.3981 N.am      2 UNK        -0.4687 
     65 C         -81.0785   26.1816  -74.8496 C.2       1 UNK         0.5165 
     66 O         -79.9250   26.2520  -75.2746 O.2       1 UNK        -0.5079 
     67 H67       -84.8336   29.0406  -75.8141 H         1 UNK         0.0900 
     68 H68       -84.4941   30.2315  -74.5555 H         1 UNK         0.0900 
     69 H69       -85.1356   28.6462  -74.1207 H         1 UNK         0.0900 
     70 H70       -83.5672   27.2976  -73.2746 H         1 UNK         0.2959 
     71 H71       -80.7661   27.8171  -73.5279 H         1 UNK         0.1079 
     72 H72       -81.9597   26.7662  -71.5103 H         1 UNK         0.0837 
     73 H73       -82.0896   25.2940  -72.4131 H         1 UNK         0.0837 
     74 H74       -80.3162   27.4647  -70.1380 H         1 UNK         0.0685 
     75 H75       -79.0522   26.4047  -69.5815 H         1 UNK         0.0685 
     76 H76       -79.7945   29.1337  -72.0141 H         1 UNK         0.1434 
     77 H77       -75.6857   30.2798  -72.4466 H         1 UNK         0.1329 
     78 H78       -76.7382   26.9309  -69.9816 H         1 UNK         0.1335 
     79 H79       -74.4769   27.5756  -70.0774 H         1 UNK         0.0680 
     80 H80       -74.0841   28.0162  -71.7235 H         1 UNK         0.0680 
     81 H81       -72.1512   28.1943  -69.4834 H         1 UNK         0.1032 
     82 H82       -71.8318   29.7730  -68.8452 H         1 UNK         0.1032 
     83 H83       -71.2944   30.4072  -71.4026 H         1 UNK         0.0461 
     84 H84       -67.6383   29.4113  -70.5059 H         1 UNK         0.3453 
     85 H85       -68.6399   28.6233  -71.6958 H         1 UNK         0.3453 
     86 H86       -70.5461   27.5479  -71.5692 H         1 UNK         0.2984 
     87 H87       -70.4247   26.9064  -74.0433 H         1 UNK         0.0554 
     88 H88       -71.5198   25.6628  -72.2157 H         1 UNK         0.0847 
     89 H89       -72.0453   24.9783  -73.7411 H         1 UNK         0.0847 
     90 H90       -73.1122   26.0523  -72.8448 H         1 UNK         0.0847 
     91 H91       -73.1244   26.8877  -75.2073 H         1 UNK         0.3141 
     92 H92       -73.2599   28.7218  -77.2414 H         1 UNK         0.0743 
     93 H93       -71.3177   29.3030  -78.6391 H         1 UNK         0.0784 
     94 H94       -71.0472   27.6162  -79.0484 H         1 UNK         0.0784 
     95 H95       -72.5011   28.4421  -79.6091 H         1 UNK         0.0784 
     96 H96       -74.3728   26.8719  -77.6185 H         1 UNK         0.3213 
     97 H97       -73.8345   23.8735  -79.0967 H         1 UNK         0.0855 
     98 H98       -72.9025   22.8863  -77.0232 H         1 UNK         0.0814 
     99 H99       -74.6242   22.5506  -77.1132 H         1 UNK         0.0814 
    100 H100      -74.0225   23.8122  -76.0373 H         1 UNK         0.0814 
    101 H101      -75.9677   24.6981  -77.3465 H         1 UNK         0.3105 
    102 H102      -77.4845   27.0010  -79.6011 H         1 UNK         0.0547 
    103 H103      -78.4118   24.8116  -80.2793 H         1 UNK         0.0837 
    104 H104      -78.3554   24.2335  -78.6230 H         1 UNK         0.0837 
    105 H105      -79.4514   25.5429  -79.0669 H         1 UNK         0.0837 
    106 H106      -78.1503   26.1481  -76.9478 H         1 UNK         0.3020 
    107 H107      -76.1170   28.4791  -75.2014 H         1 UNK         0.1245 
    108 H108      -78.8158   28.5671  -74.4500 H         1 UNK         0.0781 
    109 H109      -78.9376   28.8984  -76.1347 H         1 UNK         0.0781 
    110 H110      -79.2895   31.0748  -73.2654 H         1 UNK         0.0836 
    111 H111      -77.7771   31.8856  -72.9527 H         1 UNK         0.0836 
    112 H112      -78.0051   26.3828  -74.5079 H         1 UNK         0.3022 
    113 H113      -75.3686   23.9875  -74.0806 H         1 UNK         0.0747 
    114 H114      -75.1676   25.4698  -72.0035 H         1 UNK         0.0793 
    115 H115      -76.9048   25.3112  -71.8132 H         1 UNK         0.0793 
    116 H116      -75.8763   23.8877  -71.7322 H         1 UNK         0.0793 
    117 H117      -78.0102   23.7346  -73.2096 H         1 UNK         0.3047 
    118 H118      -78.8793   21.7509  -76.0081 H         1 UNK         0.0822 
    119 H119      -79.9302   20.8922  -73.9773 H         1 UNK         0.0807 
    120 H120      -79.3915   22.2650  -73.0225 H         1 UNK         0.0807 
    121 H121      -78.2204   21.1099  -73.6559 H         1 UNK         0.0807 
    122 H122      -80.5559   23.7675  -74.5929 H         1 UNK         0.2946 
    123 H123      -81.6223   25.2674  -77.4264 H         1 UNK         0.1144 
    124 H124      -84.0155   24.7038  -77.0819 H         1 UNK         0.0793 
    125 H125      -83.5724   23.2767  -76.1426 H         1 UNK         0.0793 
    126 H126      -83.1925   23.3628  -77.8568 H         1 UNK         0.0793 
    127 H127      -82.9454   25.4222  -74.9793 H         1 UNK         0.2896 
@<TRIPOS>BOND
     1    1    2 1    
     2    1   67 1    
     3    1   68 1    
     4    1   69 1    
     5    2    3 2    
     6    2    4 am   BACKBONE|DICT|INTERRES
     7    4    5 1    
     8    4   70 1    
     9    5    6 1    
    10    5   65 1    
    11    5   71 1    
    12    6    7 1    
    13    6   72 1    
    14    6   73 1    
    15    7    8 1    
    16    8    9 1    
    17    8   74 1    
    18    8   75 1    
    19    9   10 ar   
    20    9   14 ar   
    21   10   11 ar   
    22   10   76 1    
    23   11   12 ar   
    24   11   48 1    
    25   12   13 ar   
    26   12   77 1    
    27   13   14 ar   
    28   13   15 1    
    29   14   78 1    
    30   15   16 1    
    31   15   79 1    
    32   15   80 1    
    33   16   17 1    
    34   17   18 1    
    35   17   81 1    
    36   17   82 1    
    37   18   19 1    
    38   18   22 1    
    39   18   83 1    
    40   19   20 am   BACKBONE|DICT|INTERRES
    41   19   21 2    
    42   20   84 1    
    43   20   85 1    
    44   22   23 am   BACKBONE|DICT|INTERRES
    45   22   86 1    
    46   23   24 2    
    47   23   25 1    
    48   25   26 1    
    49   25   27 1    
    50   25   87 1    
    51   26   88 1    
    52   26   89 1    
    53   26   90 1    
    54   27   28 am   BACKBONE|DICT|INTERRES
    55   27   91 1    
    56   28   29 2    
    57   28   30 1    
    58   30   31 1    
    59   30   32 1    
    60   30   92 1    
    61   31   93 1    
    62   31   94 1    
    63   31   95 1    
    64   32   33 am   BACKBONE|DICT|INTERRES
    65   32   96 1    
    66   33   34 2    
    67   33   35 1    
    68   35   36 1    
    69   35   37 1    
    70   35   97 1    
    71   36   98 1    
    72   36   99 1    
    73   36  100 1    
    74   37   38 am   BACKBONE|DICT|INTERRES
    75   37  101 1    
    76   38   39 2    
    77   38   40 1    
    78   40   41 1    
    79   40   42 1    
    80   40  102 1    
    81   41  103 1    
    82   41  104 1    
    83   41  105 1    
    84   42   43 am   BACKBONE|DICT|INTERRES
    85   42  106 1    
    86   43   44 2    
    87   43   45 1    
    88   45   46 1    
    89   45   49 1    
    90   45  107 1    
    91   46   47 1    
    92   46  108 1    
    93   46  109 1    
    94   47   48 1    
    95   48  110 1    
    96   48  111 1    
    97   49   50 am   BACKBONE|DICT|INTERRES
    98   49  112 1    
    99   50   51 2    
   100   50   52 1    
   101   52   53 1    
   102   52   54 1    
   103   52  113 1    
   104   53  114 1    
   105   53  115 1    
   106   53  116 1    
   107   54   55 am   BACKBONE|DICT|INTERRES
   108   54  117 1    
   109   55   56 2    
   110   55   57 1    
   111   57   58 1    
   112   57   59 1    
   113   57  118 1    
   114   58  119 1    
   115   58  120 1    
   116   58  121 1    
   117   59   60 am   BACKBONE|DICT|INTERRES
   118   59  122 1    
   119   60   61 2    
   120   60   62 1    
   121   62   63 1    
   122   62   64 1    
   123   62  123 1    
   124   63  124 1    
   125   63  125 1    
   126   63  126 1    
   127   64   65 am   BACKBONE|DICT|INTERRES
   128   64  127 1    
   129   65   66 2    
@<TRIPOS>SUBSTRUCTURE
     1 UNK         1 GROUP             0       ****    0 ROOT    
