@<TRIPOS>MOLECULE
3R135
127   129    1
SMALL
USER_CHARGES


@<TRIPOS>ATOM
      1 CA        -81.1773   24.6790  -69.9548 C.3       0 UNK        -0.1998 
      2 C         -82.1315   25.6339  -70.6561 C.2       0 UNK         0.4909 
      3 O         -83.2958   25.7278  -70.2671 O.2       0 UNK        -0.5240 
      4 N         -81.6457   26.3306  -71.6906 N.am      1 UNK        -0.4739 
      5 CA        -82.4040   27.2988  -72.4984 C.3       1 UNK         0.0864 
      6 C6        -81.7788   28.7217  -72.4613 C.3       11 UNK        -0.0881 
      7 S7        -81.7478   29.4162  -70.7678 S.3       11 UNK        -0.2682 
      8 C8        -80.2514   30.4722  -70.7844 C.3       11 UNK         0.0289 
      9 C9        -78.8991   29.7536  -70.8428 C.ar      11 UNK        -0.0687 
     10 C10       -78.7793   28.3601  -70.8991 C.ar      11 UNK        -0.0823 
     11 C11       -77.5345   27.7469  -71.0523 C.ar      11 UNK        -0.0830 
     12 C12       -76.3817   28.5343  -71.0728 C.ar      11 UNK        -0.1021 
     13 C13       -76.4748   29.9242  -70.9620 C.ar      11 UNK        -0.0753 
     14 C14       -77.7330   30.5270  -70.8615 C.ar      11 UNK        -0.0933 
     15 C15       -75.2120   30.7682  -70.9574 C.3       11 UNK         0.0166 
     16 S16       -74.7866   31.3124  -72.6372 S.3       11 UNK        -0.2615 
     17 C17       -73.0193   31.7109  -72.4155 C.3       11 UNK        -0.0865 
     18 CA        -72.2612   31.8773  -73.7583 C.3       10 UNK         0.0862 
     19 C         -70.7635   32.2213  -73.4999 C.2       10 UNK         0.5551 
     20 N         -69.8096   31.3610  -73.8403 N.am      10 UNK        -0.7319 
     21 O         -70.4648   33.2931  -72.9792 O.2       10 UNK        -0.5018 
     22 N         -72.4752   30.7279  -74.6506 N.am      10 UNK        -0.4509 
     23 C         -72.2181   30.7151  -75.9635 C.2       10 UNK         0.4899 
     24 O         -71.8623   31.7107  -76.5965 O.2       10 UNK        -0.4839 
     25 CA        -72.3828   29.3635  -76.6896 C.3       9 UNK         0.0222 
     26 CB        -71.4518   29.2525  -77.9156 C.3       9 UNK        -0.1966 
     27 N         -72.2313   28.1871  -75.8180 N.am      9 UNK        -0.4218 
     28 C         -71.1586   27.8485  -75.0819 C.2       9 UNK         0.5020 
     29 O         -70.1397   28.5350  -74.9888 O.2       9 UNK        -0.5274 
     30 CA        -71.2473   26.5267  -74.3040 C.3       8 UNK         0.0270 
     31 CB        -72.0310   26.7222  -72.9941 C.3       8 UNK        -0.1976 
     32 N         -71.8838   25.4845  -75.1122 N.am      8 UNK        -0.4313 
     33 C         -71.2279   24.6442  -75.9270 C.2       8 UNK         0.5041 
     34 O         -70.0001   24.5757  -75.9968 O.2       8 UNK        -0.5577 
     35 CA        -72.0810   23.7314  -76.8311 C.3       7 UNK         0.0284 
     36 CB        -72.3757   22.3979  -76.1264 C.3       7 UNK        -0.1958 
     37 N         -73.3418   24.3582  -77.2372 N.am      7 UNK        -0.4454 
     38 C         -73.4251   25.4273  -78.0456 C.2       7 UNK         0.5089 
     39 O         -72.4675   25.8707  -78.6776 O.2       7 UNK        -0.5125 
     40 CA        -74.7824   26.1550  -78.1457 C.3       6 UNK         0.0408 
     41 CB        -75.4077   25.9328  -79.5309 C.3       6 UNK        -0.1791 
     42 N         -75.7424   25.7775  -77.0998 N.am      6 UNK        -0.4762 
     43 C         -75.5691   25.9959  -75.7844 C.2       6 UNK         0.5007 
     44 O         -74.6087   26.6272  -75.3389 O.2       6 UNK        -0.5032 
     45 CA        -76.5550   25.3389  -74.7910 C.3       5 UNK         0.0783 
     46 C46       -77.4072   26.3978  -74.0547 C.3       11 UNK        -0.0857 
     47 S47       -78.3678   25.6606  -72.6856 S.3       11 UNK        -0.2512 
     48 C48       -77.4455   26.2362  -71.2195 C.3       11 UNK         0.0225 
     49 N         -77.3814   24.2928  -75.4054 N.am      5 UNK        -0.4615 
     50 C         -76.9139   23.1232  -75.8673 C.2       4 UNK         0.5053 
     51 O         -75.7288   22.7960  -75.7965 O.2       4 UNK        -0.5105 
     52 CA        -77.9119   22.1844  -76.5738 C.3       4 UNK         0.0263 
     53 CB        -78.4362   21.1275  -75.5891 C.3       4 UNK        -0.1981 
     54 N         -79.0503   22.8768  -77.1872 N.am      4 UNK        -0.4224 
     55 C         -78.9664   23.8338  -78.1239 C.2       3 UNK         0.4895 
     56 O         -77.9074   24.1817  -78.6436 O.2       3 UNK        -0.5091 
     57 CA        -80.2642   24.5665  -78.5163 C.3       3 UNK         0.0250 
     58 CB        -80.7915   24.0349  -79.8588 C.3       3 UNK        -0.1996 
     59 N         -81.3400   24.5074  -77.5170 N.am      3 UNK        -0.4254 
     60 C         -81.2548   24.9327  -76.2479 C.2       2 UNK         0.5004 
     61 O         -80.2254   25.3940  -75.7487 O.2       2 UNK        -0.5226 
     62 CA        -82.5157   24.7341  -75.3895 C.3       2 UNK         0.0269 
     63 CB        -82.7339   23.2395  -75.0921 C.3       2 UNK        -0.1926 
     64 N         -82.4331   25.4452  -74.1142 N.am      2 UNK        -0.4687 
     65 C         -82.5860   26.7656  -73.9380 C.2       1 UNK         0.5165 
     66 O         -82.8789   27.5395  -74.8514 O.2       1 UNK        -0.5079 
     67 H67       -80.9754   25.0286  -68.9427 H         1 UNK         0.0900 
     68 H68       -81.6196   23.6851  -69.8905 H         1 UNK         0.0900 
     69 H69       -80.2269   24.5903  -70.4798 H         1 UNK         0.0900 
     70 H70       -80.6902   26.1790  -71.9898 H         1 UNK         0.2959 
     71 H71       -83.4199   27.3883  -72.1076 H         1 UNK         0.1079 
     72 H72       -80.7712   28.7064  -72.8802 H         1 UNK         0.0837 
     73 H73       -82.3532   29.4119  -73.0821 H         1 UNK         0.0837 
     74 H74       -80.2715   31.0898  -69.8854 H         1 UNK         0.0685 
     75 H75       -80.3244   31.1581  -71.6297 H         1 UNK         0.0685 
     76 H76       -79.6543   27.7351  -70.8595 H         1 UNK         0.1434 
     77 H77       -75.4112   28.0692  -71.1813 H         1 UNK         0.1329 
     78 H78       -77.8035   31.6049  -70.8053 H         1 UNK         0.1335 
     79 H79       -75.3397   31.6413  -70.3155 H         1 UNK         0.0680 
     80 H80       -74.3897   30.1908  -70.5319 H         1 UNK         0.0680 
     81 H81       -72.5513   30.9233  -71.8217 H         1 UNK         0.1032 
     82 H82       -72.9487   32.6245  -71.8216 H         1 UNK         0.1032 
     83 H83       -72.6855   32.7490  -74.2603 H         1 UNK         0.0461 
     84 H84       -68.8465   31.6011  -73.6679 H         1 UNK         0.3453 
     85 H85       -70.0370   30.4711  -74.2699 H         1 UNK         0.3453 
     86 H86       -72.7840   29.8746  -74.2108 H         1 UNK         0.2984 
     87 H87       -73.4116   29.3391  -77.0510 H         1 UNK         0.0554 
     88 H88       -71.6543   30.0443  -78.6378 H         1 UNK         0.0847 
     89 H89       -71.5863   28.3059  -78.4359 H         1 UNK         0.0847 
     90 H90       -70.4016   29.3314  -77.6328 H         1 UNK         0.0847 
     91 H91       -73.0554   27.5948  -75.7447 H         1 UNK         0.3141 
     92 H92       -70.2314   26.2204  -74.0448 H         1 UNK         0.0743 
     93 H93       -71.5588   27.4813  -72.3688 H         1 UNK         0.0784 
     94 H94       -73.0587   27.0409  -73.1714 H         1 UNK         0.0784 
     95 H95       -72.0634   25.8004  -72.4131 H         1 UNK         0.0784 
     96 H96       -72.8959   25.5019  -75.1477 H         1 UNK         0.3213 
     97 H97       -71.5011   23.5217  -77.7327 H         1 UNK         0.0855 
     98 H98       -72.9572   22.5417  -75.2148 H         1 UNK         0.0814 
     99 H99       -71.4505   21.8918  -75.8472 H         1 UNK         0.0814 
    100 H100      -72.9329   21.7209  -76.7743 H         1 UNK         0.0814 
    101 H101      -74.1865   24.0123  -76.7961 H         1 UNK         0.3105 
    102 H102      -74.5828   27.2227  -78.0355 H         1 UNK         0.0547 
    103 H103      -76.3601   26.4541  -79.6284 H         1 UNK         0.0837 
    104 H104      -75.5808   24.8746  -79.7291 H         1 UNK         0.0837 
    105 H105      -74.7522   26.3062  -80.3188 H         1 UNK         0.0837 
    106 H106      -76.5426   25.2325  -77.4046 H         1 UNK         0.3020 
    107 H107      -75.9271   24.8496  -74.0427 H         1 UNK         0.1245 
    108 H108      -78.1044   26.8758  -74.7451 H         1 UNK         0.0781 
    109 H109      -76.7768   27.1983  -73.6636 H         1 UNK         0.0781 
    110 H110      -76.4077   25.9086  -71.2989 H         1 UNK         0.0836 
    111 H111      -77.8535   25.7550  -70.3296 H         1 UNK         0.0836 
    112 H112      -78.3683   24.5118  -75.5033 H         1 UNK         0.3022 
    113 H113      -77.3683   21.6747  -77.3719 H         1 UNK         0.0747 
    114 H114      -79.0734   20.3982  -76.0898 H         1 UNK         0.0793 
    115 H115      -77.6122   20.5760  -75.1338 H         1 UNK         0.0793 
    116 H116      -79.0118   21.5799  -74.7803 H         1 UNK         0.0793 
    117 H117      -79.9639   22.6597  -76.8182 H         1 UNK         0.3047 
    118 H118      -80.0031   25.6191  -78.6448 H         1 UNK         0.0822 
    119 H119      -81.6433   24.6172  -80.2109 H         1 UNK         0.0807 
    120 H120      -81.1023   22.9919  -79.7863 H         1 UNK         0.0807 
    121 H121      -80.0228   24.0926  -80.6312 H         1 UNK         0.0807 
    122 H122      -82.2186   24.1243  -77.8363 H         1 UNK         0.2946 
    123 H123      -83.3729   25.1187  -75.9473 H         1 UNK         0.1144 
    124 H124      -81.8876   22.8065  -74.5566 H         1 UNK         0.0793 
    125 H125      -82.8686   22.6646  -76.0091 H         1 UNK         0.0793 
    126 H126      -83.6269   23.0832  -74.4864 H         1 UNK         0.0793 
    127 H127      -82.1685   24.8972  -73.3092 H         1 UNK         0.2896 
@<TRIPOS>BOND
     1    1    2 1    
     2    1   67 1    
     3    1   68 1    
     4    1   69 1    
     5    2    3 2    
     6    2    4 am   BACKBONE|DICT|INTERRES
     7    4    5 1    
     8    4   70 1    
     9    5    6 1    
    10    5   65 1    
    11    5   71 1    
    12    6    7 1    
    13    6   72 1    
    14    6   73 1    
    15    7    8 1    
    16    8    9 1    
    17    8   74 1    
    18    8   75 1    
    19    9   10 ar   
    20    9   14 ar   
    21   10   11 ar   
    22   10   76 1    
    23   11   12 ar   
    24   11   48 1    
    25   12   13 ar   
    26   12   77 1    
    27   13   14 ar   
    28   13   15 1    
    29   14   78 1    
    30   15   16 1    
    31   15   79 1    
    32   15   80 1    
    33   16   17 1    
    34   17   18 1    
    35   17   81 1    
    36   17   82 1    
    37   18   19 1    
    38   18   22 1    
    39   18   83 1    
    40   19   20 am   BACKBONE|DICT|INTERRES
    41   19   21 2    
    42   20   84 1    
    43   20   85 1    
    44   22   23 am   BACKBONE|DICT|INTERRES
    45   22   86 1    
    46   23   24 2    
    47   23   25 1    
    48   25   26 1    
    49   25   27 1    
    50   25   87 1    
    51   26   88 1    
    52   26   89 1    
    53   26   90 1    
    54   27   28 am   BACKBONE|DICT|INTERRES
    55   27   91 1    
    56   28   29 2    
    57   28   30 1    
    58   30   31 1    
    59   30   32 1    
    60   30   92 1    
    61   31   93 1    
    62   31   94 1    
    63   31   95 1    
    64   32   33 am   BACKBONE|DICT|INTERRES
    65   32   96 1    
    66   33   34 2    
    67   33   35 1    
    68   35   36 1    
    69   35   37 1    
    70   35   97 1    
    71   36   98 1    
    72   36   99 1    
    73   36  100 1    
    74   37   38 am   BACKBONE|DICT|INTERRES
    75   37  101 1    
    76   38   39 2    
    77   38   40 1    
    78   40   41 1    
    79   40   42 1    
    80   40  102 1    
    81   41  103 1    
    82   41  104 1    
    83   41  105 1    
    84   42   43 am   BACKBONE|DICT|INTERRES
    85   42  106 1    
    86   43   44 2    
    87   43   45 1    
    88   45   46 1    
    89   45   49 1    
    90   45  107 1    
    91   46   47 1    
    92   46  108 1    
    93   46  109 1    
    94   47   48 1    
    95   48  110 1    
    96   48  111 1    
    97   49   50 am   BACKBONE|DICT|INTERRES
    98   49  112 1    
    99   50   51 2    
   100   50   52 1    
   101   52   53 1    
   102   52   54 1    
   103   52  113 1    
   104   53  114 1    
   105   53  115 1    
   106   53  116 1    
   107   54   55 am   BACKBONE|DICT|INTERRES
   108   54  117 1    
   109   55   56 2    
   110   55   57 1    
   111   57   58 1    
   112   57   59 1    
   113   57  118 1    
   114   58  119 1    
   115   58  120 1    
   116   58  121 1    
   117   59   60 am   BACKBONE|DICT|INTERRES
   118   59  122 1    
   119   60   61 2    
   120   60   62 1    
   121   62   63 1    
   122   62   64 1    
   123   62  123 1    
   124   63  124 1    
   125   63  125 1    
   126   63  126 1    
   127   64   65 am   BACKBONE|DICT|INTERRES
   128   64  127 1    
   129   65   66 2    
@<TRIPOS>SUBSTRUCTURE
     1 UNK         1 GROUP             0       ****    0 ROOT    
