@<TRIPOS>MOLECULE
3R135
127   129    1
SMALL
USER_CHARGES


@<TRIPOS>ATOM
      1 CA        -81.5249   21.9169  -72.1544 C.3       0 UNK        -0.1998 
      2 C         -81.1023   23.3644  -72.3524 C.2       0 UNK         0.4909 
      3 O         -79.9490   23.6178  -72.6959 O.2       0 UNK        -0.5240 
      4 N         -82.0342   24.3073  -72.1531 N.am      1 UNK        -0.4739 
      5 CA        -81.8539   25.7627  -72.2579 C.3       1 UNK         0.0864 
      6 C6        -81.0573   26.3553  -71.0628 C.3       11 UNK        -0.0881 
      7 S7        -81.6778   28.0130  -70.6229 S.3       11 UNK        -0.2682 
      8 C8        -80.1962   28.7959  -69.9113 C.3       11 UNK         0.0289 
      9 C9        -79.1397   29.1530  -70.9506 C.ar      11 UNK        -0.0687 
     10 C10       -79.4665   29.9329  -72.0655 C.ar      11 UNK        -0.0823 
     11 C11       -78.4870   30.3131  -72.9896 C.ar      11 UNK        -0.0830 
     12 C12       -77.1610   29.9180  -72.7746 C.ar      11 UNK        -0.1021 
     13 C13       -76.8229   29.1317  -71.6689 C.ar      11 UNK        -0.0753 
     14 C14       -77.8157   28.7485  -70.7641 C.ar      11 UNK        -0.0933 
     15 C15       -75.3826   28.7071  -71.4423 C.3       11 UNK         0.0166 
     16 S16       -74.4320   30.0368  -70.6412 S.3       11 UNK        -0.2615 
     17 C17       -72.8102   29.2295  -70.4114 C.3       11 UNK        -0.0865 
     18 CA        -71.7946   29.5786  -71.5306 C.3       10 UNK         0.0862 
     19 C         -70.3904   28.9961  -71.1958 C.2       10 UNK         0.5551 
     20 N         -69.9027   27.9831  -71.9017 N.am      10 UNK        -0.7319 
     21 O         -69.7329   29.4774  -70.2763 O.2       10 UNK        -0.5018 
     22 N         -72.3124   29.1982  -72.8516 N.am      10 UNK        -0.4509 
     23 C         -71.8565   29.6385  -74.0269 C.2       10 UNK         0.4899 
     24 O         -70.9447   30.4568  -74.1602 O.2       10 UNK        -0.4839 
     25 CA        -72.5491   29.0409  -75.2642 C.3       9 UNK         0.0222 
     26 CB        -72.7783   30.1133  -76.3436 C.3       9 UNK        -0.1966 
     27 N         -71.8267   27.9128  -75.8608 N.am      9 UNK        -0.4218 
     28 C         -71.3033   26.8430  -75.2451 C.2       9 UNK         0.5020 
     29 O         -71.3259   26.6493  -74.0280 O.2       9 UNK        -0.5274 
     30 CA        -70.6826   25.7811  -76.1699 C.3       8 UNK         0.0270 
     31 CB        -69.7023   24.8543  -75.4262 C.3       8 UNK        -0.1976 
     32 N         -71.7285   24.9678  -76.7911 N.am      8 UNK        -0.4313 
     33 C         -72.5365   25.3705  -77.7805 C.2       8 UNK         0.5041 
     34 O         -72.4224   26.4709  -78.3261 O.2       8 UNK        -0.5577 
     35 CA        -73.6265   24.3830  -78.2484 C.3       7 UNK         0.0284 
     36 CB        -73.7867   23.1481  -77.3364 C.3       7 UNK        -0.1958 
     37 N         -74.9245   25.0488  -78.3705 N.am      7 UNK        -0.4454 
     38 C         -75.3383   25.7471  -79.4360 C.2       7 UNK         0.5089 
     39 O         -74.6906   25.8651  -80.4778 O.2       7 UNK        -0.5125 
     40 CA        -76.7276   26.4022  -79.3487 C.3       6 UNK         0.0408 
     41 CB        -77.7978   25.4475  -79.9013 C.3       6 UNK        -0.1791 
     42 N         -77.1041   26.8232  -77.9959 N.am      6 UNK        -0.4762 
     43 C         -76.5701   27.8655  -77.3416 C.2       6 UNK         0.5007 
     44 O         -75.6858   28.5809  -77.8113 O.2       6 UNK        -0.5032 
     45 CA        -77.1205   28.1668  -75.9316 C.3       5 UNK         0.0783 
     46 C46       -78.4070   29.0348  -75.9815 C.3       11 UNK        -0.0857 
     47 S47       -78.0202   30.8013  -75.7468 S.3       11 UNK        -0.2512 
     48 C48       -78.8856   31.1840  -74.1821 C.3       11 UNK         0.0225 
     49 N         -77.3161   26.9486  -75.1470 N.am      5 UNK        -0.4615 
     50 C         -76.3202   26.2266  -74.6180 C.2       4 UNK         0.5053 
     51 O         -75.1317   26.5354  -74.6914 O.2       4 UNK        -0.5105 
     52 CA        -76.7151   24.9282  -73.8971 C.3       4 UNK         0.0263 
     53 CB        -77.0419   25.2172  -72.4239 C.3       4 UNK        -0.1981 
     54 N         -77.8479   24.2457  -74.5288 N.am      4 UNK        -0.4224 
     55 C         -77.8390   23.7591  -75.7790 C.2       3 UNK         0.4895 
     56 O         -76.8600   23.7968  -76.5234 O.2       3 UNK        -0.5091 
     57 CA        -79.1590   23.1814  -76.3108 C.3       3 UNK         0.0250 
     58 CB        -79.4099   21.7712  -75.7533 C.3       3 UNK        -0.1996 
     59 N         -80.3051   24.0481  -76.0260 N.am      3 UNK        -0.4254 
     60 C         -80.4710   25.2787  -76.5337 C.2       2 UNK         0.5004 
     61 O         -79.6762   25.8165  -77.3015 O.2       2 UNK        -0.5226 
     62 CA        -81.7179   26.0576  -76.0886 C.3       2 UNK         0.0269 
     63 CB        -82.9148   25.7275  -76.9942 C.3       2 UNK        -0.1926 
     64 N         -82.0751   25.8106  -74.6901 N.am      2 UNK        -0.4687 
     65 C         -81.3213   26.1848  -73.6461 C.2       1 UNK         0.5165 
     66 O         -80.2474   26.7780  -73.7662 O.2       1 UNK        -0.5079 
     67 H67       -81.4804   21.3790  -73.1007 H         1 UNK         0.0900 
     68 H68       -80.8536   21.4251  -71.4511 H         1 UNK         0.0900 
     69 H69       -82.5396   21.8373  -71.7650 H         1 UNK         0.0900 
     70 H70       -82.9653   24.0146  -71.8895 H         1 UNK         0.2959 
     71 H71       -82.8693   26.1604  -72.2072 H         1 UNK         0.1079 
     72 H72       -81.1819   25.7293  -70.1780 H         1 UNK         0.0837 
     73 H73       -79.9837   26.3775  -71.2557 H         1 UNK         0.0837 
     74 H74       -80.4993   29.7108  -69.4008 H         1 UNK         0.0685 
     75 H75       -79.7859   28.1382  -69.1432 H         1 UNK         0.0685 
     76 H76       -80.4905   30.2512  -72.2058 H         1 UNK         0.1434 
     77 H77       -76.3863   30.2272  -73.4620 H         1 UNK         0.1329 
     78 H78       -77.5508   28.1535  -69.9008 H         1 UNK         0.1335 
     79 H79       -74.9298   28.4421  -72.3979 H         1 UNK         0.0680 
     80 H80       -75.3458   27.8104  -70.8219 H         1 UNK         0.0680 
     81 H81       -72.4256   29.5519  -69.4417 H         1 UNK         0.1032 
     82 H82       -72.9426   28.1486  -70.3330 H         1 UNK         0.1032 
     83 H83       -71.6748   30.6638  -71.5372 H         1 UNK         0.0461 
     84 H84       -68.9925   27.6153  -71.6768 H         1 UNK         0.3453 
     85 H85       -70.4498   27.5638  -72.6502 H         1 UNK         0.3453 
     86 H86       -73.0067   28.4667  -72.8580 H         1 UNK         0.2984 
     87 H87       -73.5292   28.6684  -74.9618 H         1 UNK         0.0554 
     88 H88       -73.3423   30.9565  -75.9426 H         1 UNK         0.0847 
     89 H89       -73.3465   29.7165  -77.1846 H         1 UNK         0.0847 
     90 H90       -71.8372   30.5042  -76.7327 H         1 UNK         0.0847 
     91 H91       -71.8323   27.8745  -76.8746 H         1 UNK         0.3141 
     92 H92       -70.1222   26.2985  -76.9520 H         1 UNK         0.0743 
     93 H93       -68.9122   25.4316  -74.9441 H         1 UNK         0.0784 
     94 H94       -70.2007   24.2731  -74.6491 H         1 UNK         0.0784 
     95 H95       -69.2204   24.1558  -76.1104 H         1 UNK         0.0784 
     96 H96       -71.9002   24.0643  -76.3747 H         1 UNK         0.3213 
     97 H97       -73.3207   24.0253  -79.2338 H         1 UNK         0.0855 
     98 H98       -74.0520   23.4272  -76.3152 H         1 UNK         0.0814 
     99 H99       -72.8745   22.5512  -77.3015 H         1 UNK         0.0814 
    100 H100      -74.5742   22.4913  -77.7071 H         1 UNK         0.0814 
    101 H101      -75.5588   24.9555  -77.5833 H         1 UNK         0.3105 
    102 H102      -76.7111   27.2909  -79.9830 H         1 UNK         0.0547 
    103 H103      -78.7746   25.9293  -79.9450 H         1 UNK         0.0837 
    104 H104      -77.5508   25.1242  -80.9134 H         1 UNK         0.0837 
    105 H105      -77.8933   24.5524  -79.2853 H         1 UNK         0.0837 
    106 H106      -77.8826   26.3247  -77.5695 H         1 UNK         0.3020 
    107 H107      -76.3376   28.7301  -75.4185 H         1 UNK         0.1245 
    108 H108      -79.1080   28.7321  -75.2026 H         1 UNK         0.0781 
    109 H109      -78.9559   28.9091  -76.9172 H         1 UNK         0.0781 
    110 H110      -79.9586   31.1048  -74.3646 H         1 UNK         0.0836 
    111 H111      -78.6950   32.2270  -73.9266 H         1 UNK         0.0836 
    112 H112      -78.2706   26.6464  -74.9972 H         1 UNK         0.3022 
    113 H113      -75.8581   24.2526  -73.9351 H         1 UNK         0.0747 
    114 H114      -77.2887   24.3032  -71.8836 H         1 UNK         0.0793 
    115 H115      -76.1914   25.6754  -71.9183 H         1 UNK         0.0793 
    116 H116      -77.8863   25.9011  -72.3292 H         1 UNK         0.0793 
    117 H117      -78.6886   24.1404  -73.9625 H         1 UNK         0.3047 
    118 H118      -79.0689   23.1027  -77.3965 H         1 UNK         0.0822 
    119 H119      -78.5869   21.1025  -76.0091 H         1 UNK         0.0807 
    120 H120      -80.3199   21.3357  -76.1663 H         1 UNK         0.0807 
    121 H121      -79.4992   21.7720  -74.6670 H         1 UNK         0.0807 
    122 H122      -80.9913   23.7034  -75.3716 H         1 UNK         0.2946 
    123 H123      -81.4898   27.1210  -76.1952 H         1 UNK         0.1144 
    124 H124      -83.7822   26.3386  -76.7440 H         1 UNK         0.0793 
    125 H125      -83.2069   24.6796  -76.9156 H         1 UNK         0.0793 
    126 H126      -82.6755   25.9215  -78.0409 H         1 UNK         0.0793 
    127 H127      -82.9340   25.3081  -74.5162 H         1 UNK         0.2896 
@<TRIPOS>BOND
     1    1    2 1    
     2    1   67 1    
     3    1   68 1    
     4    1   69 1    
     5    2    3 2    
     6    2    4 am   BACKBONE|DICT|INTERRES
     7    4    5 1    
     8    4   70 1    
     9    5    6 1    
    10    5   65 1    
    11    5   71 1    
    12    6    7 1    
    13    6   72 1    
    14    6   73 1    
    15    7    8 1    
    16    8    9 1    
    17    8   74 1    
    18    8   75 1    
    19    9   10 ar   
    20    9   14 ar   
    21   10   11 ar   
    22   10   76 1    
    23   11   12 ar   
    24   11   48 1    
    25   12   13 ar   
    26   12   77 1    
    27   13   14 ar   
    28   13   15 1    
    29   14   78 1    
    30   15   16 1    
    31   15   79 1    
    32   15   80 1    
    33   16   17 1    
    34   17   18 1    
    35   17   81 1    
    36   17   82 1    
    37   18   19 1    
    38   18   22 1    
    39   18   83 1    
    40   19   20 am   BACKBONE|DICT|INTERRES
    41   19   21 2    
    42   20   84 1    
    43   20   85 1    
    44   22   23 am   BACKBONE|DICT|INTERRES
    45   22   86 1    
    46   23   24 2    
    47   23   25 1    
    48   25   26 1    
    49   25   27 1    
    50   25   87 1    
    51   26   88 1    
    52   26   89 1    
    53   26   90 1    
    54   27   28 am   BACKBONE|DICT|INTERRES
    55   27   91 1    
    56   28   29 2    
    57   28   30 1    
    58   30   31 1    
    59   30   32 1    
    60   30   92 1    
    61   31   93 1    
    62   31   94 1    
    63   31   95 1    
    64   32   33 am   BACKBONE|DICT|INTERRES
    65   32   96 1    
    66   33   34 2    
    67   33   35 1    
    68   35   36 1    
    69   35   37 1    
    70   35   97 1    
    71   36   98 1    
    72   36   99 1    
    73   36  100 1    
    74   37   38 am   BACKBONE|DICT|INTERRES
    75   37  101 1    
    76   38   39 2    
    77   38   40 1    
    78   40   41 1    
    79   40   42 1    
    80   40  102 1    
    81   41  103 1    
    82   41  104 1    
    83   41  105 1    
    84   42   43 am   BACKBONE|DICT|INTERRES
    85   42  106 1    
    86   43   44 2    
    87   43   45 1    
    88   45   46 1    
    89   45   49 1    
    90   45  107 1    
    91   46   47 1    
    92   46  108 1    
    93   46  109 1    
    94   47   48 1    
    95   48  110 1    
    96   48  111 1    
    97   49   50 am   BACKBONE|DICT|INTERRES
    98   49  112 1    
    99   50   51 2    
   100   50   52 1    
   101   52   53 1    
   102   52   54 1    
   103   52  113 1    
   104   53  114 1    
   105   53  115 1    
   106   53  116 1    
   107   54   55 am   BACKBONE|DICT|INTERRES
   108   54  117 1    
   109   55   56 2    
   110   55   57 1    
   111   57   58 1    
   112   57   59 1    
   113   57  118 1    
   114   58  119 1    
   115   58  120 1    
   116   58  121 1    
   117   59   60 am   BACKBONE|DICT|INTERRES
   118   59  122 1    
   119   60   61 2    
   120   60   62 1    
   121   62   63 1    
   122   62   64 1    
   123   62  123 1    
   124   63  124 1    
   125   63  125 1    
   126   63  126 1    
   127   64   65 am   BACKBONE|DICT|INTERRES
   128   64  127 1    
   129   65   66 2    
@<TRIPOS>SUBSTRUCTURE
     1 UNK         1 GROUP             0       ****    0 ROOT    
