@<TRIPOS>MOLECULE
3R135
127   129    1
SMALL
USER_CHARGES


@<TRIPOS>ATOM
      1 CA        -83.8751   27.5539  -71.1136 C.3       0 UNK        -0.1998 
      2 C         -83.6254   27.6775  -72.6091 C.2       0 UNK         0.4909 
      3 O         -84.5587   27.5385  -73.4001 O.2       0 UNK        -0.5240 
      4 N         -82.3716   27.9386  -73.0014 N.am      1 UNK        -0.4739 
      5 CA        -81.9462   28.0804  -74.4004 C.3       1 UNK         0.0864 
      6 C6        -80.5848   28.8089  -74.5201 C.3       11 UNK        -0.0881 
      7 S7        -80.6498   30.5527  -73.9899 S.3       11 UNK        -0.2682 
      8 C8        -80.1611   30.4789  -72.2363 C.3       11 UNK         0.0289 
      9 C9        -78.7751   29.8859  -72.0172 C.ar      11 UNK        -0.0687 
     10 C10       -78.6287   28.6815  -71.3199 C.ar      11 UNK        -0.0823 
     11 C11       -77.3578   28.1688  -71.0427 C.ar      11 UNK        -0.0830 
     12 C12       -76.2293   28.8680  -71.4811 C.ar      11 UNK        -0.1021 
     13 C13       -76.3606   30.0648  -72.1897 C.ar      11 UNK        -0.0753 
     14 C14       -77.6366   30.5699  -72.4558 C.ar      11 UNK        -0.0933 
     15 C15       -75.1213   30.8446  -72.5976 C.3       11 UNK         0.0166 
     16 S16       -74.6939   30.6179  -74.3521 S.3       11 UNK        -0.2615 
     17 C17       -73.1014   31.5221  -74.3822 C.3       11 UNK        -0.0865 
     18 CA        -71.9109   30.7164  -74.9861 C.3       10 UNK         0.0862 
     19 C         -70.5582   31.4889  -74.9244 C.2       10 UNK         0.5551 
     20 N         -70.5452   32.7624  -75.2971 N.am      10 UNK        -0.7319 
     21 O         -69.5092   30.9485  -74.5772 O.2       10 UNK        -0.5018 
     22 N         -71.8159   29.3337  -74.4926 N.am      10 UNK        -0.4509 
     23 C         -71.6580   28.9242  -73.2265 C.2       10 UNK         0.4899 
     24 O         -71.5673   29.6882  -72.2644 O.2       10 UNK        -0.4839 
     25 CA        -71.6101   27.4009  -72.9856 C.3       9 UNK         0.0222 
     26 CB        -72.5308   26.9858  -71.8253 C.3       9 UNK        -0.1966 
     27 N         -72.0031   26.6502  -74.1820 N.am      9 UNK        -0.4218 
     28 C         -71.1629   26.0143  -75.0084 C.2       9 UNK         0.5020 
     29 O         -69.9546   25.8903  -74.8041 O.2       9 UNK        -0.5274 
     30 CA        -71.7674   25.4546  -76.3086 C.3       8 UNK         0.0270 
     31 CB        -72.4756   24.1151  -76.0472 C.3       8 UNK        -0.1976 
     32 N         -72.7005   26.3770  -76.9632 N.am      8 UNK        -0.4313 
     33 C         -72.4257   27.6152  -77.3937 C.2       8 UNK         0.5041 
     34 O         -71.3150   28.1353  -77.2956 O.2       8 UNK        -0.5577 
     35 CA        -73.5796   28.4466  -77.9889 C.3       7 UNK         0.0284 
     36 CB        -73.7226   28.1986  -79.5034 C.3       7 UNK        -0.1958 
     37 N         -74.8616   28.2967  -77.2827 N.am      7 UNK        -0.4454 
     38 C         -75.6391   27.2098  -77.2032 C.2       7 UNK         0.5089 
     39 O         -75.4009   26.1460  -77.7788 O.2       7 UNK        -0.5125 
     40 CA        -76.8637   27.3094  -76.2824 C.3       6 UNK         0.0408 
     41 CB        -78.1513   27.2662  -77.1201 C.3       6 UNK        -0.1791 
     42 N         -76.8935   26.2213  -75.3024 N.am      6 UNK        -0.4762 
     43 C         -75.9185   25.9134  -74.4318 C.2       6 UNK         0.5007 
     44 O         -74.8520   26.5255  -74.3490 O.2       6 UNK        -0.5032 
     45 CA        -76.1574   24.6922  -73.5268 C.3       5 UNK         0.0783 
     46 C46       -77.0520   25.0384  -72.3094 C.3       11 UNK        -0.0857 
     47 S47       -76.0737   25.6777  -70.9132 S.3       11 UNK        -0.2512 
     48 C48       -77.2108   26.9076  -70.1974 C.3       11 UNK         0.0225 
     49 N         -76.7243   23.5836  -74.2978 N.am      5 UNK        -0.4615 
     50 C         -76.1002   22.4248  -74.5493 C.2       4 UNK         0.5053 
     51 O         -74.9548   22.1705  -74.1767 O.2       4 UNK        -0.5105 
     52 CA        -76.8811   21.3428  -75.3210 C.3       4 UNK         0.0263 
     53 CB        -77.3939   20.2637  -74.3529 C.3       4 UNK        -0.1981 
     54 N         -78.0136   21.8722  -76.0822 N.am      4 UNK        -0.4224 
     55 C         -77.9055   22.5728  -77.2188 C.2       3 UNK         0.4895 
     56 O         -76.8403   22.7580  -77.8064 O.2       3 UNK        -0.5091 
     57 CA        -79.1981   23.1792  -77.7987 C.3       3 UNK         0.0250 
     58 CB        -79.7058   22.3274  -78.9738 C.3       3 UNK        -0.1996 
     59 N         -80.2950   23.3713  -76.8380 N.am      3 UNK        -0.4254 
     60 C         -80.2429   24.1277  -75.7329 C.2       2 UNK         0.5004 
     61 O         -79.2144   24.6627  -75.3128 O.2       2 UNK        -0.5226 
     62 CA        -81.5438   24.2699  -74.9283 C.3       2 UNK         0.0269 
     63 CB        -81.5584   23.2673  -73.7632 C.3       2 UNK        -0.1926 
     64 N         -81.6959   25.6250  -74.3939 N.am      2 UNK        -0.4687 
     65 C         -81.8924   26.7246  -75.1377 C.2       1 UNK         0.5165 
     66 O         -82.0329   26.7006  -76.3615 O.2       1 UNK        -0.5079 
     67 H67       -84.2615   26.5625  -70.8787 H         1 UNK         0.0900 
     68 H68       -84.6114   28.2910  -70.7946 H         1 UNK         0.0900 
     69 H69       -82.9663   27.7102  -70.5327 H         1 UNK         0.0900 
     70 H70       -81.6472   28.0493  -72.3088 H         1 UNK         0.2959 
     71 H71       -82.6960   28.6825  -74.9195 H         1 UNK         0.1079 
     72 H72       -79.7974   28.2718  -73.9887 H         1 UNK         0.0837 
     73 H73       -80.2727   28.8397  -75.5646 H         1 UNK         0.0837 
     74 H74       -80.1737   31.4929  -71.8342 H         1 UNK         0.0685 
     75 H75       -80.9160   29.9290  -71.6740 H         1 UNK         0.0685 
     76 H76       -79.5042   28.1604  -70.9587 H         1 UNK         0.1434 
     77 H77       -75.2444   28.4927  -71.2448 H         1 UNK         0.1329 
     78 H78       -77.7439   31.5067  -72.9856 H         1 UNK         0.1335 
     79 H79       -75.2769   31.9065  -72.4013 H         1 UNK         0.0680 
     80 H80       -74.2740   30.5399  -71.9810 H         1 UNK         0.0680 
     81 H81       -72.8452   31.8507  -73.3734 H         1 UNK         0.1032 
     82 H82       -73.2664   32.4367  -74.9530 H         1 UNK         0.1032 
     83 H83       -72.1124   30.6035  -76.0510 H         1 UNK         0.0461 
     84 H84       -69.6724   33.2664  -75.2724 H         1 UNK         0.3453 
     85 H85       -71.3793   33.2279  -75.6175 H         1 UNK         0.3453 
     86 H86       -71.7778   28.6310  -75.2187 H         1 UNK         0.2984 
     87 H87       -70.5840   27.1574  -72.7040 H         1 UNK         0.0554 
     88 H88       -72.4572   25.9172  -71.6237 H         1 UNK         0.0847 
     89 H89       -73.5731   27.2088  -72.0489 H         1 UNK         0.0847 
     90 H90       -72.2722   27.5074  -70.9031 H         1 UNK         0.0847 
     91 H91       -72.9969   26.6741  -74.4106 H         1 UNK         0.3141 
     92 H92       -70.9452   25.2772  -77.0047 H         1 UNK         0.0743 
     93 H93       -73.3345   24.2337  -75.3855 H         1 UNK         0.0784 
     94 H94       -72.8302   23.6648  -76.9746 H         1 UNK         0.0784 
     95 H95       -71.7994   23.3994  -75.5775 H         1 UNK         0.0784 
     96 H96       -73.6511   26.0460  -77.1144 H         1 UNK         0.3213 
     97 H97       -73.3033   29.4944  -77.8622 H         1 UNK         0.0855 
     98 H98       -72.7929   28.4354  -80.0226 H         1 UNK         0.0814 
     99 H99       -74.5033   28.8241  -79.9361 H         1 UNK         0.0814 
    100 H100      -73.9604   27.1591  -79.7307 H         1 UNK         0.0814 
    101 H101      -75.1274   29.0932  -76.7180 H         1 UNK         0.3105 
    102 H102      -76.8340   28.2486  -75.7259 H         1 UNK         0.0547 
    103 H103      -78.2468   28.1601  -77.7373 H         1 UNK         0.0837 
    104 H104      -78.1661   26.4051  -77.7888 H         1 UNK         0.0837 
    105 H105      -79.0378   27.2007  -76.4931 H         1 UNK         0.0837 
    106 H106      -77.7345   25.6469  -75.3091 H         1 UNK         0.3020 
    107 H107      -75.1740   24.3955  -73.1539 H         1 UNK         0.1245 
    108 H108      -77.5571   24.1422  -71.9448 H         1 UNK         0.0781 
    109 H109      -77.8490   25.7355  -72.5773 H         1 UNK         0.0781 
    110 H110      -76.8340   27.1956  -69.2152 H         1 UNK         0.0836 
    111 H111      -78.1786   26.4338  -70.0257 H         1 UNK         0.0836 
    112 H112      -77.6538   23.7377  -74.6763 H         1 UNK         0.3022 
    113 H113      -76.1850   20.8727  -76.0191 H         1 UNK         0.0747 
    114 H114      -77.8895   19.4531  -74.8876 H         1 UNK         0.0793 
    115 H115      -76.5707   19.8215  -73.7898 H         1 UNK         0.0793 
    116 H116      -78.1005   20.6723  -73.6292 H         1 UNK         0.0793 
    117 H117      -78.9316   21.7543  -75.6796 H         1 UNK         0.3047 
    118 H118      -78.9343   24.1651  -78.1856 H         1 UNK         0.0822 
    119 H119      -80.5501   22.8020  -79.4743 H         1 UNK         0.0807 
    120 H120      -80.0212   21.3357  -78.6469 H         1 UNK         0.0807 
    121 H121      -78.9253   22.1899  -79.7238 H         1 UNK         0.0807 
    122 H122      -81.1770   22.9462  -77.0873 H         1 UNK         0.2946 
    123 H123      -82.3937   24.0668  -75.5839 H         1 UNK         0.1144 
    124 H124      -81.4819   22.2417  -74.1268 H         1 UNK         0.0793 
    125 H125      -82.4839   23.3371  -73.1911 H         1 UNK         0.0793 
    126 H126      -80.7263   23.4330  -73.0771 H         1 UNK         0.0793 
    127 H127      -81.5777   25.7382  -73.3985 H         1 UNK         0.2896 
@<TRIPOS>BOND
     1    1    2 1    
     2    1   67 1    
     3    1   68 1    
     4    1   69 1    
     5    2    3 2    
     6    2    4 am   BACKBONE|DICT|INTERRES
     7    4    5 1    
     8    4   70 1    
     9    5    6 1    
    10    5   65 1    
    11    5   71 1    
    12    6    7 1    
    13    6   72 1    
    14    6   73 1    
    15    7    8 1    
    16    8    9 1    
    17    8   74 1    
    18    8   75 1    
    19    9   10 ar   
    20    9   14 ar   
    21   10   11 ar   
    22   10   76 1    
    23   11   12 ar   
    24   11   48 1    
    25   12   13 ar   
    26   12   77 1    
    27   13   14 ar   
    28   13   15 1    
    29   14   78 1    
    30   15   16 1    
    31   15   79 1    
    32   15   80 1    
    33   16   17 1    
    34   17   18 1    
    35   17   81 1    
    36   17   82 1    
    37   18   19 1    
    38   18   22 1    
    39   18   83 1    
    40   19   20 am   BACKBONE|DICT|INTERRES
    41   19   21 2    
    42   20   84 1    
    43   20   85 1    
    44   22   23 am   BACKBONE|DICT|INTERRES
    45   22   86 1    
    46   23   24 2    
    47   23   25 1    
    48   25   26 1    
    49   25   27 1    
    50   25   87 1    
    51   26   88 1    
    52   26   89 1    
    53   26   90 1    
    54   27   28 am   BACKBONE|DICT|INTERRES
    55   27   91 1    
    56   28   29 2    
    57   28   30 1    
    58   30   31 1    
    59   30   32 1    
    60   30   92 1    
    61   31   93 1    
    62   31   94 1    
    63   31   95 1    
    64   32   33 am   BACKBONE|DICT|INTERRES
    65   32   96 1    
    66   33   34 2    
    67   33   35 1    
    68   35   36 1    
    69   35   37 1    
    70   35   97 1    
    71   36   98 1    
    72   36   99 1    
    73   36  100 1    
    74   37   38 am   BACKBONE|DICT|INTERRES
    75   37  101 1    
    76   38   39 2    
    77   38   40 1    
    78   40   41 1    
    79   40   42 1    
    80   40  102 1    
    81   41  103 1    
    82   41  104 1    
    83   41  105 1    
    84   42   43 am   BACKBONE|DICT|INTERRES
    85   42  106 1    
    86   43   44 2    
    87   43   45 1    
    88   45   46 1    
    89   45   49 1    
    90   45  107 1    
    91   46   47 1    
    92   46  108 1    
    93   46  109 1    
    94   47   48 1    
    95   48  110 1    
    96   48  111 1    
    97   49   50 am   BACKBONE|DICT|INTERRES
    98   49  112 1    
    99   50   51 2    
   100   50   52 1    
   101   52   53 1    
   102   52   54 1    
   103   52  113 1    
   104   53  114 1    
   105   53  115 1    
   106   53  116 1    
   107   54   55 am   BACKBONE|DICT|INTERRES
   108   54  117 1    
   109   55   56 2    
   110   55   57 1    
   111   57   58 1    
   112   57   59 1    
   113   57  118 1    
   114   58  119 1    
   115   58  120 1    
   116   58  121 1    
   117   59   60 am   BACKBONE|DICT|INTERRES
   118   59  122 1    
   119   60   61 2    
   120   60   62 1    
   121   62   63 1    
   122   62   64 1    
   123   62  123 1    
   124   63  124 1    
   125   63  125 1    
   126   63  126 1    
   127   64   65 am   BACKBONE|DICT|INTERRES
   128   64  127 1    
   129   65   66 2    
@<TRIPOS>SUBSTRUCTURE
     1 UNK         1 GROUP             0       ****    0 ROOT    
