@<TRIPOS>MOLECULE
3R135
127   129    1
SMALL
USER_CHARGES


@<TRIPOS>ATOM
      1 CA        -82.3655   26.5082  -71.6488 C.3       0 UNK        -0.1998 
      2 C         -82.6023   27.3802  -72.8724 C.2       0 UNK         0.4909 
      3 O         -83.7300   27.4642  -73.3603 O.2       0 UNK        -0.5240 
      4 N         -81.5454   28.0209  -73.3866 N.am      1 UNK        -0.4739 
      5 CA        -81.5460   28.8662  -74.5870 C.3       1 UNK         0.0864 
      6 C6        -80.4370   29.9557  -74.5249 C.3       11 UNK        -0.0881 
      7 S7        -78.7717   29.3293  -74.1028 S.3       11 UNK        -0.2682 
      8 C8        -78.6853   29.6859  -72.3224 C.3       11 UNK         0.0289 
      9 C9        -77.6362   28.8093  -71.6599 C.ar      11 UNK        -0.0687 
     10 C10       -77.9564   27.5063  -71.2715 C.ar      11 UNK        -0.0823 
     11 C11       -76.9958   26.6864  -70.6748 C.ar      11 UNK        -0.0830 
     12 C12       -75.6995   27.1739  -70.4806 C.ar      11 UNK        -0.1021 
     13 C13       -75.3688   28.4817  -70.8535 C.ar      11 UNK        -0.0753 
     14 C14       -76.3472   29.2962  -71.4340 C.ar      11 UNK        -0.0933 
     15 C15       -73.9691   29.0216  -70.5845 C.3       11 UNK         0.0166 
     16 S16       -72.9628   29.1624  -72.0981 S.3       11 UNK        -0.2615 
     17 C17       -73.5135   30.7696  -72.7690 C.3       11 UNK        -0.0865 
     18 CA        -74.2404   30.6157  -74.1388 C.3       10 UNK         0.0862 
     19 C         -75.1062   31.8578  -74.5139 C.2       10 UNK         0.5551 
     20 N         -75.2424   32.2070  -75.7875 N.am      10 UNK        -0.7319 
     21 O         -75.6917   32.4975  -73.6436 O.2       10 UNK        -0.5018 
     22 N         -73.3358   30.1497  -75.2066 N.am      10 UNK        -0.4509 
     23 C         -72.2585   30.7995  -75.6720 C.2       10 UNK         0.4899 
     24 O         -71.8924   31.9092  -75.2814 O.2       10 UNK        -0.4839 
     25 CA        -71.4644   30.0670  -76.7654 C.3       9 UNK         0.0222 
     26 CB        -70.1603   30.7845  -77.1771 C.3       9 UNK        -0.1966 
     27 N         -71.2339   28.6657  -76.4026 N.am      9 UNK        -0.4218 
     28 C         -70.4400   28.1642  -75.4420 C.2       9 UNK         0.5020 
     29 O         -69.6829   28.8496  -74.7533 O.2       9 UNK        -0.5274 
     30 CA        -70.4958   26.6370  -75.1946 C.3       8 UNK         0.0270 
     31 CB        -70.5973   26.3139  -73.6932 C.3       8 UNK        -0.1976 
     32 N         -71.6026   25.9713  -75.8895 N.am      8 UNK        -0.4313 
     33 C         -71.6374   25.6855  -77.1994 C.2       8 UNK         0.5041 
     34 O         -70.6702   25.8251  -77.9479 O.2       8 UNK        -0.5577 
     35 CA        -72.9831   25.2306  -77.7971 C.3       7 UNK         0.0284 
     36 CB        -72.9315   23.7373  -78.1555 C.3       7 UNK        -0.1958 
     37 N         -74.1477   25.4877  -76.9406 N.am      7 UNK        -0.4454 
     38 C         -74.5822   26.6958  -76.5414 C.2       7 UNK         0.5089 
     39 O         -74.0473   27.7563  -76.8680 O.2       7 UNK        -0.5125 
     40 CA        -75.7821   26.7342  -75.5767 C.3       6 UNK         0.0408 
     41 CB        -77.0622   27.0694  -76.3548 C.3       6 UNK        -0.1791 
     42 N         -75.9724   25.4867  -74.8289 N.am      6 UNK        -0.4762 
     43 C         -75.0891   24.9803  -73.9512 C.2       6 UNK         0.5007 
     44 O         -74.0312   25.5410  -73.6618 O.2       6 UNK        -0.5032 
     45 CA        -75.3759   23.5834  -73.3559 C.3       5 UNK         0.0783 
     46 C46       -75.7872   23.6494  -71.8643 C.3       11 UNK        -0.0857 
     47 S47       -77.5305   24.1253  -71.5942 S.3       11 UNK        -0.2512 
     48 C48       -77.3829   25.2917  -70.2077 C.3       11 UNK         0.0225 
     49 N         -76.3171   22.7841  -74.1475 N.am      5 UNK        -0.4615 
     50 C         -76.1044   22.3396  -75.3916 C.2       4 UNK         0.5053 
     51 O         -75.0549   22.5205  -76.0070 O.2       4 UNK        -0.5105 
     52 CA        -77.2700   21.6081  -76.0817 C.3       4 UNK         0.0263 
     53 CB        -77.1279   20.0885  -75.9009 C.3       4 UNK        -0.1981 
     54 N         -78.6054   22.0293  -75.6342 N.am      4 UNK        -0.4224 
     55 C         -79.0925   23.2737  -75.7379 C.2       3 UNK         0.4895 
     56 O         -78.4411   24.2331  -76.1552 O.2       3 UNK        -0.5091 
     57 CA        -80.5345   23.4895  -75.2702 C.3       3 UNK         0.0250 
     58 CB        -80.5915   23.7237  -73.7506 C.3       3 UNK        -0.1996 
     59 N         -81.0788   24.6583  -75.9556 N.am      3 UNK        -0.4254 
     60 C         -82.3355   24.7917  -76.3911 C.2       2 UNK         0.5004 
     61 O         -83.2059   23.9310  -76.2455 O.2       2 UNK        -0.5226 
     62 CA        -82.6794   26.1375  -77.0508 C.3       2 UNK         0.0269 
     63 CB        -84.0999   26.1654  -77.6463 C.3       2 UNK        -0.1926 
     64 N         -82.5696   27.1876  -76.0405 N.am      2 UNK        -0.4687 
     65 C         -81.5139   27.9897  -75.8609 C.2       1 UNK         0.5165 
     66 O         -80.5455   28.0085  -76.6214 O.2       1 UNK        -0.5079 
     67 H67       -82.8384   26.9540  -70.7743 H         1 UNK         0.0900 
     68 H68       -81.3046   26.3806  -71.4365 H         1 UNK         0.0900 
     69 H69       -82.7983   25.5202  -71.8030 H         1 UNK         0.0900 
     70 H70       -80.6321   27.8848  -72.9793 H         1 UNK         0.2959 
     71 H71       -82.4977   29.4019  -74.6244 H         1 UNK         0.1079 
     72 H72       -80.3726   30.4896  -75.4748 H         1 UNK         0.0837 
     73 H73       -80.7179   30.7139  -73.7924 H         1 UNK         0.0837 
     74 H74       -79.6545   29.5146  -71.8525 H         1 UNK         0.0685 
     75 H75       -78.4549   30.7429  -72.1786 H         1 UNK         0.0685 
     76 H76       -78.9545   27.1257  -71.4325 H         1 UNK         0.1434 
     77 H77       -74.9527   26.5425  -70.0191 H         1 UNK         0.1329 
     78 H78       -76.1139   30.3116  -71.7161 H         1 UNK         0.1335 
     79 H79       -74.0320   29.9877  -70.0816 H         1 UNK         0.0680 
     80 H80       -73.4431   28.3627  -69.8920 H         1 UNK         0.0680 
     81 H81       -74.1463   31.2633  -72.0323 H         1 UNK         0.1032 
     82 H82       -72.6440   31.4207  -72.8601 H         1 UNK         0.1032 
     83 H83       -74.9752   29.8179  -74.0250 H         1 UNK         0.0461 
     84 H84       -75.8131   33.0032  -76.0234 H         1 UNK         0.3453 
     85 H85       -74.7795   31.6825  -76.5119 H         1 UNK         0.3453 
     86 H86       -73.5786   29.2629  -75.6357 H         1 UNK         0.2984 
     87 H87       -72.1106   30.0440  -77.6441 H         1 UNK         0.0554 
     88 H88       -69.6256   30.2273  -77.9461 H         1 UNK         0.0847 
     89 H89       -69.4852   30.9252  -76.3327 H         1 UNK         0.0847 
     90 H90       -70.3749   31.7736  -77.5834 H         1 UNK         0.0847 
     91 H91       -71.8536   28.0114  -76.8635 H         1 UNK         0.3141 
     92 H92       -69.5561   26.2224  -75.5652 H         1 UNK         0.0743 
     93 H93       -69.7553   26.7318  -73.1399 H         1 UNK         0.0784 
     94 H94       -71.5094   26.7226  -73.2566 H         1 UNK         0.0784 
     95 H95       -70.5957   25.2381  -73.5169 H         1 UNK         0.0784 
     96 H96       -72.4450   25.8270  -75.3450 H         1 UNK         0.3213 
     97 H97       -73.1300   25.7971  -78.7191 H         1 UNK         0.0855 
     98 H98       -72.7524   23.1186  -77.2753 H         1 UNK         0.0814 
     99 H99       -72.1274   23.5333  -78.8640 H         1 UNK         0.0814 
    100 H100      -73.8612   23.4040  -78.6171 H         1 UNK         0.0814 
    101 H101      -74.6393   24.6697  -76.5996 H         1 UNK         0.3105 
    102 H102      -75.6050   27.5278  -74.8479 H         1 UNK         0.0547 
    103 H103      -77.2235   26.3817  -77.1856 H         1 UNK         0.0837 
    104 H104      -77.9434   27.0256  -75.7154 H         1 UNK         0.0837 
    105 H105      -77.0130   28.0765  -76.7704 H         1 UNK         0.0837 
    106 H106      -76.8069   24.9534  -75.0509 H         1 UNK         0.3020 
    107 H107      -74.4180   23.0593  -73.3967 H         1 UNK         0.1245 
    108 H108      -75.1226   24.3169  -71.3125 H         1 UNK         0.0781 
    109 H109      -75.6488   22.6666  -71.4113 H         1 UNK         0.0781 
    110 H110      -76.6705   24.9098  -69.4747 H         1 UNK         0.0836 
    111 H111      -78.3435   25.3420  -69.6927 H         1 UNK         0.0836 
    112 H112      -77.2145   22.6137  -73.7174 H         1 UNK         0.3022 
    113 H113      -77.1995   21.8324  -77.1482 H         1 UNK         0.0747 
    114 H114      -77.8819   19.5474  -76.4730 H         1 UNK         0.0793 
    115 H115      -76.1527   19.7436  -76.2483 H         1 UNK         0.0793 
    116 H116      -77.2233   19.7952  -74.8546 H         1 UNK         0.0793 
    117 H117      -79.2034   21.3044  -75.2633 H         1 UNK         0.3047 
    118 H118      -81.1151   22.6007  -75.5274 H         1 UNK         0.0822 
    119 H119      -80.1728   22.8786  -73.2028 H         1 UNK         0.0807 
    120 H120      -81.6191   23.8513  -73.4106 H         1 UNK         0.0807 
    121 H121      -80.0308   24.6132  -73.4598 H         1 UNK         0.0807 
    122 H122      -80.4008   25.3841  -76.1562 H         1 UNK         0.2946 
    123 H123      -81.9673   26.3035  -77.8628 H         1 UNK         0.1144 
    124 H124      -84.2224   25.3866  -78.4001 H         1 UNK         0.0793 
    125 H125      -84.3058   27.1199  -78.1308 H         1 UNK         0.0793 
    126 H126      -84.8634   26.0066  -76.8835 H         1 UNK         0.0793 
    127 H127      -83.2775   27.1879  -75.3117 H         1 UNK         0.2896 
@<TRIPOS>BOND
     1    1    2 1    
     2    1   67 1    
     3    1   68 1    
     4    1   69 1    
     5    2    3 2    
     6    2    4 am   BACKBONE|DICT|INTERRES
     7    4    5 1    
     8    4   70 1    
     9    5    6 1    
    10    5   65 1    
    11    5   71 1    
    12    6    7 1    
    13    6   72 1    
    14    6   73 1    
    15    7    8 1    
    16    8    9 1    
    17    8   74 1    
    18    8   75 1    
    19    9   10 ar   
    20    9   14 ar   
    21   10   11 ar   
    22   10   76 1    
    23   11   12 ar   
    24   11   48 1    
    25   12   13 ar   
    26   12   77 1    
    27   13   14 ar   
    28   13   15 1    
    29   14   78 1    
    30   15   16 1    
    31   15   79 1    
    32   15   80 1    
    33   16   17 1    
    34   17   18 1    
    35   17   81 1    
    36   17   82 1    
    37   18   19 1    
    38   18   22 1    
    39   18   83 1    
    40   19   20 am   BACKBONE|DICT|INTERRES
    41   19   21 2    
    42   20   84 1    
    43   20   85 1    
    44   22   23 am   BACKBONE|DICT|INTERRES
    45   22   86 1    
    46   23   24 2    
    47   23   25 1    
    48   25   26 1    
    49   25   27 1    
    50   25   87 1    
    51   26   88 1    
    52   26   89 1    
    53   26   90 1    
    54   27   28 am   BACKBONE|DICT|INTERRES
    55   27   91 1    
    56   28   29 2    
    57   28   30 1    
    58   30   31 1    
    59   30   32 1    
    60   30   92 1    
    61   31   93 1    
    62   31   94 1    
    63   31   95 1    
    64   32   33 am   BACKBONE|DICT|INTERRES
    65   32   96 1    
    66   33   34 2    
    67   33   35 1    
    68   35   36 1    
    69   35   37 1    
    70   35   97 1    
    71   36   98 1    
    72   36   99 1    
    73   36  100 1    
    74   37   38 am   BACKBONE|DICT|INTERRES
    75   37  101 1    
    76   38   39 2    
    77   38   40 1    
    78   40   41 1    
    79   40   42 1    
    80   40  102 1    
    81   41  103 1    
    82   41  104 1    
    83   41  105 1    
    84   42   43 am   BACKBONE|DICT|INTERRES
    85   42  106 1    
    86   43   44 2    
    87   43   45 1    
    88   45   46 1    
    89   45   49 1    
    90   45  107 1    
    91   46   47 1    
    92   46  108 1    
    93   46  109 1    
    94   47   48 1    
    95   48  110 1    
    96   48  111 1    
    97   49   50 am   BACKBONE|DICT|INTERRES
    98   49  112 1    
    99   50   51 2    
   100   50   52 1    
   101   52   53 1    
   102   52   54 1    
   103   52  113 1    
   104   53  114 1    
   105   53  115 1    
   106   53  116 1    
   107   54   55 am   BACKBONE|DICT|INTERRES
   108   54  117 1    
   109   55   56 2    
   110   55   57 1    
   111   57   58 1    
   112   57   59 1    
   113   57  118 1    
   114   58  119 1    
   115   58  120 1    
   116   58  121 1    
   117   59   60 am   BACKBONE|DICT|INTERRES
   118   59  122 1    
   119   60   61 2    
   120   60   62 1    
   121   62   63 1    
   122   62   64 1    
   123   62  123 1    
   124   63  124 1    
   125   63  125 1    
   126   63  126 1    
   127   64   65 am   BACKBONE|DICT|INTERRES
   128   64  127 1    
   129   65   66 2    
@<TRIPOS>SUBSTRUCTURE
     1 UNK         1 GROUP             0       ****    0 ROOT    
