@<TRIPOS>MOLECULE
3R135
127   129    1
SMALL
USER_CHARGES


@<TRIPOS>ATOM
      1 CA        -78.5269   27.6465  -78.8997 C.3       0 UNK        -0.1998 
      2 C         -78.7701   26.8520  -77.6257 C.2       0 UNK         0.4909 
      3 O         -78.6288   25.6291  -77.6349 O.2       0 UNK        -0.5240 
      4 N         -79.1537   27.5399  -76.5395 N.am      1 UNK        -0.4739 
      5 CA        -79.3586   26.9952  -75.1860 C.3       1 UNK         0.0864 
      6 C6        -79.7992   28.0896  -74.1780 C.3       11 UNK        -0.0881 
      7 S7        -78.7569   29.5896  -74.2189 S.3       11 UNK        -0.2682 
      8 C8        -78.6805   30.0659  -72.4625 C.3       11 UNK         0.0289 
      9 C9        -77.5899   29.3040  -71.7269 C.ar      11 UNK        -0.0687 
     10 C10       -77.8958   28.1507  -70.9991 C.ar      11 UNK        -0.0823 
     11 C11       -76.8834   27.4205  -70.3679 C.ar      11 UNK        -0.0830 
     12 C12       -75.5625   27.8756  -70.4391 C.ar      11 UNK        -0.1021 
     13 C13       -75.2473   29.0371  -71.1504 C.ar      11 UNK        -0.0753 
     14 C14       -76.2663   29.7499  -71.7866 C.ar      11 UNK        -0.0933 
     15 C15       -73.8054   29.5130  -71.2400 C.3       11 UNK         0.0166 
     16 S16       -72.8439   28.4765  -72.3832 S.3       11 UNK        -0.2615 
     17 C17       -71.1857   29.2345  -72.2411 C.3       11 UNK        -0.0865 
     18 CA        -70.5190   29.5684  -73.6019 C.3       10 UNK         0.0862 
     19 C         -70.1137   28.2942  -74.3947 C.2       10 UNK         0.5551 
     20 N         -70.7460   27.9760  -75.5174 N.am      10 UNK        -0.7319 
     21 O         -69.1801   27.6001  -73.9989 O.2       10 UNK        -0.5018 
     22 N         -71.3043   30.5299  -74.3920 N.am      10 UNK        -0.4509 
     23 C         -71.0133   31.8288  -74.5412 C.2       10 UNK         0.4899 
     24 O         -70.0828   32.3911  -73.9620 O.2       10 UNK        -0.4839 
     25 CA        -71.8780   32.6591  -75.5125 C.3       9 UNK         0.0222 
     26 CB        -71.1129   32.9121  -76.8223 C.3       9 UNK        -0.1966 
     27 N         -73.1705   32.0506  -75.8308 N.am      9 UNK        -0.4218 
     28 C         -74.1949   31.9353  -74.9771 C.2       9 UNK         0.5020 
     29 O         -74.1978   32.4209  -73.8450 O.2       9 UNK        -0.5274 
     30 CA        -75.4343   31.1550  -75.4555 C.3       8 UNK         0.0270 
     31 CB        -76.5262   32.1377  -75.9117 C.3       8 UNK        -0.1976 
     32 N         -75.2465   30.1371  -76.5008 N.am      8 UNK        -0.4313 
     33 C         -74.3275   29.1618  -76.5317 C.2       8 UNK         0.5041 
     34 O         -73.3030   29.1389  -75.8470 O.2       8 UNK        -0.5577 
     35 CA        -74.5864   28.0117  -77.5202 C.3       7 UNK         0.0284 
     36 CB        -73.7902   28.2273  -78.8167 C.3       7 UNK        -0.1958 
     37 N         -74.2305   26.7118  -76.9399 N.am      7 UNK        -0.4454 
     38 C         -74.7789   26.2009  -75.8276 C.2       7 UNK         0.5089 
     39 O         -75.7133   26.7333  -75.2228 O.2       7 UNK        -0.5125 
     40 CA        -74.1621   24.8854  -75.3032 C.3       6 UNK         0.0408 
     41 CB        -72.7077   25.1012  -74.8499 C.3       6 UNK        -0.1791 
     42 N         -74.9235   24.3515  -74.1715 N.am      6 UNK        -0.4762 
     43 C         -76.1337   23.7871  -74.2723 C.2       6 UNK         0.5007 
     44 O         -76.6360   23.4506  -75.3492 O.2       6 UNK        -0.5032 
     45 CA        -76.9134   23.6147  -72.9504 C.3       5 UNK         0.0783 
     46 C46       -77.1000   24.9843  -72.2493 C.3       11 UNK        -0.0857 
     47 S47       -78.0667   24.9029  -70.7019 S.3       11 UNK        -0.2512 
     48 C48       -77.2028   26.1166  -69.6426 C.3       11 UNK         0.0225 
     49 N         -78.1980   22.9799  -73.2354 N.am      5 UNK        -0.4615 
     50 C         -78.4436   21.6687  -73.1491 C.2       4 UNK         0.5053 
     51 O         -77.6530   20.8431  -72.6909 O.2       4 UNK        -0.5105 
     52 CA        -79.7942   21.2020  -73.7038 C.3       4 UNK         0.0263 
     53 CB        -80.9353   21.5456  -72.7317 C.3       4 UNK        -0.1981 
     54 N         -80.0478   21.8397  -74.9936 N.am      4 UNK        -0.4224 
     55 C         -79.6763   21.3539  -76.1864 C.2       3 UNK         0.4895 
     56 O         -79.1386   20.2548  -76.3316 O.2       3 UNK        -0.5091 
     57 CA        -79.9252   22.2378  -77.4306 C.3       3 UNK         0.0250 
     58 CB        -80.5281   21.4375  -78.6045 C.3       3 UNK        -0.1996 
     59 N         -80.7022   23.4561  -77.1603 N.am      3 UNK        -0.4254 
     60 C         -81.9703   23.5448  -76.7235 C.2       2 UNK         0.5004 
     61 O         -82.7293   22.5792  -76.6344 O.2       2 UNK        -0.5226 
     62 CA        -82.4631   24.9308  -76.2541 C.3       2 UNK         0.0269 
     63 CB        -83.3734   24.8255  -75.0117 C.3       2 UNK        -0.1926 
     64 N         -81.3908   25.9076  -76.0116 N.am      2 UNK        -0.4687 
     65 C         -80.3648   25.8239  -75.1462 C.2       1 UNK         0.5165 
     66 O         -80.1731   24.8703  -74.3874 O.2       1 UNK        -0.5079 
     67 H67       -79.2819   27.3973  -79.6448 H         1 UNK         0.0900 
     68 H68       -77.5492   27.4025  -79.3140 H         1 UNK         0.0900 
     69 H69       -78.5630   28.7215  -78.7240 H         1 UNK         0.0900 
     70 H70       -79.2474   28.5441  -76.6004 H         1 UNK         0.2959 
     71 H71       -78.3930   26.5994  -74.8676 H         1 UNK         0.1079 
     72 H72       -80.8262   28.4045  -74.3744 H         1 UNK         0.0837 
     73 H73       -79.7985   27.6780  -73.1676 H         1 UNK         0.0837 
     74 H74       -78.4797   31.1365  -72.4006 H         1 UNK         0.0685 
     75 H75       -79.6523   29.9115  -71.9909 H         1 UNK         0.0685 
     76 H76       -78.9168   27.7986  -70.9492 H         1 UNK         0.1434 
     77 H77       -74.7701   27.3163  -69.9605 H         1 UNK         0.1329 
     78 H78       -76.0271   30.6481  -72.3383 H         1 UNK         0.1335 
     79 H79       -73.3491   29.4834  -70.2494 H         1 UNK         0.0680 
     80 H80       -73.7623   30.5508  -71.5756 H         1 UNK         0.0680 
     81 H81       -70.5497   28.5633  -71.6611 H         1 UNK         0.1032 
     82 H82       -71.2551   30.1487  -71.6500 H         1 UNK         0.1032 
     83 H83       -69.5608   30.0333  -73.3625 H         1 UNK         0.0461 
     84 H84       -70.4460   27.1679  -76.0361 H         1 UNK         0.3453 
     85 H85       -71.5986   28.4650  -75.7782 H         1 UNK         0.3453 
     86 H86       -72.0944   30.1315  -74.8968 H         1 UNK         0.2984 
     87 H87       -72.0669   33.6238  -75.0371 H         1 UNK         0.0554 
     88 H88       -71.6755   33.5611  -77.4935 H         1 UNK         0.0847 
     89 H89       -70.9000   31.9821  -77.3514 H         1 UNK         0.0847 
     90 H90       -70.1574   33.4016  -76.6285 H         1 UNK         0.0847 
     91 H91       -73.2524   31.5897  -76.7253 H         1 UNK         0.3141 
     92 H92       -75.8107   30.6135  -74.5877 H         1 UNK         0.0743 
     93 H93       -76.2263   32.6846  -76.8065 H         1 UNK         0.0784 
     94 H94       -77.4629   31.6246  -76.1292 H         1 UNK         0.0784 
     95 H95       -76.7397   32.8738  -75.1351 H         1 UNK         0.0784 
     96 H96       -76.0080   30.0684  -77.1596 H         1 UNK         0.3213 
     97 H97       -75.6510   27.9831  -77.7585 H         1 UNK         0.0855 
     98 H98       -74.0558   29.1754  -79.2862 H         1 UNK         0.0814 
     99 H99       -73.9924   27.4404  -79.5437 H         1 UNK         0.0814 
    100 H100      -72.7153   28.2463  -78.6309 H         1 UNK         0.0814 
    101 H101      -73.4547   26.2262  -77.3643 H         1 UNK         0.3105 
    102 H102      -74.1738   24.1526  -76.1127 H         1 UNK         0.0547 
    103 H103      -72.0712   25.3855  -75.6876 H         1 UNK         0.0837 
    104 H104      -72.6312   25.8920  -74.1022 H         1 UNK         0.0837 
    105 H105      -72.2828   24.1927  -74.4231 H         1 UNK         0.0837 
    106 H106      -74.5931   24.6237  -73.2573 H         1 UNK         0.3020 
    107 H107      -76.3195   22.9694  -72.2990 H         1 UNK         0.1245 
    108 H108      -77.5967   25.6951  -72.9105 H         1 UNK         0.0781 
    109 H109      -76.1256   25.4183  -72.0216 H         1 UNK         0.0781 
    110 H110      -76.2908   25.6537  -69.2624 H         1 UNK         0.0836 
    111 H111      -77.8227   26.3336  -68.7719 H         1 UNK         0.0836 
    112 H112      -78.8989   23.5866  -73.6489 H         1 UNK         0.3022 
    113 H113      -79.7618   20.1172  -73.8268 H         1 UNK         0.0747 
    114 H114      -81.8941   21.1866  -73.1064 H         1 UNK         0.0793 
    115 H115      -80.7712   21.0802  -71.7589 H         1 UNK         0.0793 
    116 H116      -81.0223   22.6211  -72.5691 H         1 UNK         0.0793 
    117 H117      -80.4331   22.7754  -74.9642 H         1 UNK         0.3047 
    118 H118      -78.9393   22.5871  -77.7421 H         1 UNK         0.0822 
    119 H119      -80.6830   22.0705  -79.4782 H         1 UNK         0.0807 
    120 H120      -81.4850   20.9864  -78.3413 H         1 UNK         0.0807 
    121 H121      -79.8631   20.6278  -78.9073 H         1 UNK         0.0807 
    122 H122      -80.1571   24.3129  -77.2030 H         1 UNK         0.2946 
    123 H123      -83.0633   25.3263  -77.0752 H         1 UNK         0.1144 
    124 H124      -83.7263   25.8065  -74.6938 H         1 UNK         0.0793 
    125 H125      -82.8568   24.3656  -74.1685 H         1 UNK         0.0793 
    126 H126      -84.2563   24.2198  -75.2200 H         1 UNK         0.0793 
    127 H127      -81.4139   26.7267  -76.6040 H         1 UNK         0.2896 
@<TRIPOS>BOND
     1    1    2 1    
     2    1   67 1    
     3    1   68 1    
     4    1   69 1    
     5    2    3 2    
     6    2    4 am   BACKBONE|DICT|INTERRES
     7    4    5 1    
     8    4   70 1    
     9    5    6 1    
    10    5   65 1    
    11    5   71 1    
    12    6    7 1    
    13    6   72 1    
    14    6   73 1    
    15    7    8 1    
    16    8    9 1    
    17    8   74 1    
    18    8   75 1    
    19    9   10 ar   
    20    9   14 ar   
    21   10   11 ar   
    22   10   76 1    
    23   11   12 ar   
    24   11   48 1    
    25   12   13 ar   
    26   12   77 1    
    27   13   14 ar   
    28   13   15 1    
    29   14   78 1    
    30   15   16 1    
    31   15   79 1    
    32   15   80 1    
    33   16   17 1    
    34   17   18 1    
    35   17   81 1    
    36   17   82 1    
    37   18   19 1    
    38   18   22 1    
    39   18   83 1    
    40   19   20 am   BACKBONE|DICT|INTERRES
    41   19   21 2    
    42   20   84 1    
    43   20   85 1    
    44   22   23 am   BACKBONE|DICT|INTERRES
    45   22   86 1    
    46   23   24 2    
    47   23   25 1    
    48   25   26 1    
    49   25   27 1    
    50   25   87 1    
    51   26   88 1    
    52   26   89 1    
    53   26   90 1    
    54   27   28 am   BACKBONE|DICT|INTERRES
    55   27   91 1    
    56   28   29 2    
    57   28   30 1    
    58   30   31 1    
    59   30   32 1    
    60   30   92 1    
    61   31   93 1    
    62   31   94 1    
    63   31   95 1    
    64   32   33 am   BACKBONE|DICT|INTERRES
    65   32   96 1    
    66   33   34 2    
    67   33   35 1    
    68   35   36 1    
    69   35   37 1    
    70   35   97 1    
    71   36   98 1    
    72   36   99 1    
    73   36  100 1    
    74   37   38 am   BACKBONE|DICT|INTERRES
    75   37  101 1    
    76   38   39 2    
    77   38   40 1    
    78   40   41 1    
    79   40   42 1    
    80   40  102 1    
    81   41  103 1    
    82   41  104 1    
    83   41  105 1    
    84   42   43 am   BACKBONE|DICT|INTERRES
    85   42  106 1    
    86   43   44 2    
    87   43   45 1    
    88   45   46 1    
    89   45   49 1    
    90   45  107 1    
    91   46   47 1    
    92   46  108 1    
    93   46  109 1    
    94   47   48 1    
    95   48  110 1    
    96   48  111 1    
    97   49   50 am   BACKBONE|DICT|INTERRES
    98   49  112 1    
    99   50   51 2    
   100   50   52 1    
   101   52   53 1    
   102   52   54 1    
   103   52  113 1    
   104   53  114 1    
   105   53  115 1    
   106   53  116 1    
   107   54   55 am   BACKBONE|DICT|INTERRES
   108   54  117 1    
   109   55   56 2    
   110   55   57 1    
   111   57   58 1    
   112   57   59 1    
   113   57  118 1    
   114   58  119 1    
   115   58  120 1    
   116   58  121 1    
   117   59   60 am   BACKBONE|DICT|INTERRES
   118   59  122 1    
   119   60   61 2    
   120   60   62 1    
   121   62   63 1    
   122   62   64 1    
   123   62  123 1    
   124   63  124 1    
   125   63  125 1    
   126   63  126 1    
   127   64   65 am   BACKBONE|DICT|INTERRES
   128   64  127 1    
   129   65   66 2    
@<TRIPOS>SUBSTRUCTURE
     1 UNK         1 GROUP             0       ****    0 ROOT    
