@<TRIPOS>MOLECULE
3R135
127   129    1
SMALL
USER_CHARGES


@<TRIPOS>ATOM
      1 CA        -82.5788   26.5069  -66.8709 C.3       0 UNK        -0.1998 
      2 C         -82.5228   26.9565  -68.3233 C.2       0 UNK         0.4909 
      3 O         -83.0682   28.0080  -68.6609 O.2       0 UNK        -0.5240 
      4 N         -81.8744   26.1670  -69.1838 N.am      1 UNK        -0.4739 
      5 CA        -81.7270   26.4095  -70.6188 C.3       1 UNK         0.0864 
      6 C6        -80.6987   27.5285  -70.9511 C.3       11 UNK        -0.0881 
      7 S7        -78.9973   27.2046  -70.3625 S.3       11 UNK        -0.2682 
      8 C8        -78.0793   26.9886  -71.9234 C.3       11 UNK         0.0289 
      9 C9        -78.0512   28.2587  -72.7644 C.ar      11 UNK        -0.0687 
     10 C10       -78.7002   28.3007  -74.0030 C.ar      11 UNK        -0.0823 
     11 C11       -78.6956   29.4701  -74.7718 C.ar      11 UNK        -0.0830 
     12 C12       -78.0443   30.6058  -74.2817 C.ar      11 UNK        -0.1021 
     13 C13       -77.3912   30.5780  -73.0463 C.ar      11 UNK        -0.0753 
     14 C14       -77.3864   29.3970  -72.2982 C.ar      11 UNK        -0.0933 
     15 C15       -76.7285   31.8374  -72.5037 C.3       11 UNK         0.0166 
     16 S16       -75.3183   32.3742  -73.5201 S.3       11 UNK        -0.2615 
     17 C17       -74.1347   31.0257  -73.2043 C.3       11 UNK        -0.0865 
     18 CA        -72.8328   31.1848  -74.0283 C.3       10 UNK         0.0862 
     19 C         -71.8713   32.2358  -73.4069 C.2       10 UNK         0.5551 
     20 N         -71.8777   33.4624  -73.9100 N.am      10 UNK        -0.7319 
     21 O         -71.1462   31.9544  -72.4543 O.2       10 UNK        -0.5018 
     22 N         -72.1854   29.8823  -74.2003 N.am      10 UNK        -0.4509 
     23 C         -71.2066   29.6048  -75.0654 C.2       10 UNK         0.4899 
     24 O         -70.7594   30.4171  -75.8758 O.2       10 UNK        -0.4839 
     25 CA        -70.6325   28.1765  -75.0489 C.3       9 UNK         0.0222 
     26 CB        -69.4030   28.0847  -74.1245 C.3       9 UNK        -0.1966 
     27 N         -71.6100   27.1161  -74.7572 N.am      9 UNK        -0.4218 
     28 C         -72.2638   26.8419  -73.6161 C.2       9 UNK         0.5020 
     29 O         -72.1466   27.5137  -72.5903 O.2       9 UNK        -0.5274 
     30 CA        -73.2431   25.6480  -73.6072 C.3       8 UNK         0.0270 
     31 CB        -74.6788   26.1294  -73.3358 C.3       8 UNK        -0.1976 
     32 N         -73.2323   24.8594  -74.8418 N.am      8 UNK        -0.4313 
     33 C         -72.2401   24.0480  -75.2332 C.2       8 UNK         0.5041 
     34 O         -71.2563   23.7815  -74.5428 O.2       8 UNK        -0.5577 
     35 CA        -72.3377   23.4896  -76.6618 C.3       7 UNK         0.0284 
     36 CB        -73.0976   22.1547  -76.6673 C.3       7 UNK        -0.1958 
     37 N         -72.9754   24.4401  -77.5820 N.am      7 UNK        -0.4454 
     38 C         -72.4020   25.5771  -78.0060 C.2       7 UNK         0.5089 
     39 O         -71.2636   25.9226  -77.6921 O.2       7 UNK        -0.5125 
     40 CA        -73.2484   26.5044  -78.8953 C.3       6 UNK         0.0408 
     41 CB        -73.1786   26.0567  -80.3636 C.3       6 UNK        -0.1791 
     42 N         -74.6475   26.5783  -78.4692 N.am      6 UNK        -0.4762 
     43 C         -75.0739   27.1651  -77.3394 C.2       6 UNK         0.5007 
     44 O         -74.3325   27.7613  -76.5593 O.2       6 UNK        -0.5032 
     45 CA        -76.5757   27.0255  -77.0084 C.3       5 UNK         0.0783 
     46 C46       -77.3671   28.2375  -77.5594 C.3       11 UNK        -0.0857 
     47 S47       -79.1534   28.1200  -77.2018 S.3       11 UNK        -0.2512 
     48 C48       -79.4392   29.5462  -76.1024 C.3       11 UNK         0.0225 
     49 N         -77.1377   25.7446  -77.4625 N.am      5 UNK        -0.4615 
     50 C         -76.7362   24.5321  -77.0645 C.2       4 UNK         0.5053 
     51 O         -75.8057   24.3516  -76.2766 O.2       4 UNK        -0.5105 
     52 CA        -77.4988   23.3345  -77.6599 C.3       4 UNK         0.0263 
     53 CB        -76.9060   21.9780  -77.2389 C.3       4 UNK        -0.1981 
     54 N         -78.9119   23.3649  -77.2843 N.am      4 UNK        -0.4224 
     55 C         -79.8710   24.0577  -77.9143 C.2       3 UNK         0.4895 
     56 O         -79.6586   24.7796  -78.8892 O.2       3 UNK        -0.5091 
     57 CA        -81.3039   23.9209  -77.3674 C.3       3 UNK         0.0250 
     58 CB        -82.0718   22.8369  -78.1414 C.3       3 UNK        -0.1996 
     59 N         -81.3298   23.6061  -75.9346 N.am      3 UNK        -0.4254 
     60 C         -81.1165   24.5149  -74.9754 C.2       2 UNK         0.5004 
     61 O         -80.9746   25.7212  -75.1905 O.2       2 UNK        -0.5226 
     62 CA        -81.0071   23.9911  -73.5397 C.3       2 UNK         0.0269 
     63 CB        -79.6147   23.3687  -73.3021 C.3       2 UNK        -0.1926 
     64 N         -81.2325   25.1224  -72.6440 N.am      2 UNK        -0.4687 
     65 C         -81.4510   25.0681  -71.3270 C.2       1 UNK         0.5165 
     66 O         -81.4552   24.0164  -70.6792 O.2       1 UNK        -0.5079 
     67 H67       -82.1195   27.2576  -66.2283 H         1 UNK         0.0900 
     68 H68       -82.0558   25.5632  -66.7165 H         1 UNK         0.0900 
     69 H69       -83.6142   26.3765  -66.5576 H         1 UNK         0.0900 
     70 H70       -81.4872   25.2805  -68.8837 H         1 UNK         0.2959 
     71 H71       -82.7011   26.7339  -70.9922 H         1 UNK         0.1079 
     72 H72       -81.0240   28.4636  -70.4932 H         1 UNK         0.0837 
     73 H73       -80.6929   27.7359  -72.0212 H         1 UNK         0.0837 
     74 H74       -78.5132   26.1603  -72.4830 H         1 UNK         0.0685 
     75 H75       -77.0573   26.6952  -71.6849 H         1 UNK         0.0685 
     76 H76       -79.2194   27.4256  -74.3682 H         1 UNK         0.1434 
     77 H77       -78.0522   31.5231  -74.8549 H         1 UNK         0.1329 
     78 H78       -76.8907   29.3676  -71.3375 H         1 UNK         0.1335 
     79 H79       -76.3951   31.6936  -71.4747 H         1 UNK         0.0680 
     80 H80       -77.4662   32.6405  -72.4762 H         1 UNK         0.0680 
     81 H81       -73.9260   30.9541  -72.1348 H         1 UNK         0.1032 
     82 H82       -74.6320   30.0930  -73.4774 H         1 UNK         0.1032 
     83 H83       -73.1055   31.5198  -75.0316 H         1 UNK         0.0461 
     84 H84       -72.4898   33.7042  -74.6738 H         1 UNK         0.3453 
     85 H85       -71.2702   34.1615  -73.5123 H         1 UNK         0.3453 
     86 H86       -72.4138   29.1629  -73.5214 H         1 UNK         0.2984 
     87 H87       -70.2889   27.9741  -76.0644 H         1 UNK         0.0554 
     88 H88       -68.9546   27.0917  -74.1581 H         1 UNK         0.0847 
     89 H89       -69.6537   28.3060  -73.0867 H         1 UNK         0.0847 
     90 H90       -68.6356   28.7977  -74.4286 H         1 UNK         0.0847 
     91 H91       -71.8232   26.5287  -75.5531 H         1 UNK         0.3141 
     92 H92       -72.9430   24.9932  -72.7867 H         1 UNK         0.0743 
     93 H93       -75.0191   26.8351  -74.0933 H         1 UNK         0.0784 
     94 H94       -75.3824   25.2969  -73.3107 H         1 UNK         0.0784 
     95 H95       -74.7404   26.6370  -72.3725 H         1 UNK         0.0784 
     96 H96       -74.0431   24.9458  -75.4476 H         1 UNK         0.3213 
     97 H97       -71.3222   23.3039  -77.0192 H         1 UNK         0.0855 
     98 H98       -74.0834   22.2511  -76.2126 H         1 UNK         0.0814 
     99 H99       -72.5548   21.4013  -76.0951 H         1 UNK         0.0814 
    100 H100      -73.2221   21.7660  -77.6780 H         1 UNK         0.0814 
    101 H101      -73.9345   24.2549  -77.8379 H         1 UNK         0.3105 
    102 H102      -72.8223   27.5079  -78.8277 H         1 UNK         0.0547 
    103 H103      -73.6097   25.0654  -80.5086 H         1 UNK         0.0837 
    104 H104      -73.7069   26.7519  -81.0161 H         1 UNK         0.0837 
    105 H105      -72.1444   26.0150  -80.7087 H         1 UNK         0.0837 
    106 H106      -75.3314   26.1202  -79.0546 H         1 UNK         0.3020 
    107 H107      -76.6589   27.0389  -75.9195 H         1 UNK         0.1245 
    108 H108      -76.9755   29.1686  -77.1446 H         1 UNK         0.0781 
    109 H109      -77.2493   28.3136  -78.6421 H         1 UNK         0.0781 
    110 H110      -79.1756   30.4568  -76.6429 H         1 UNK         0.0836 
    111 H111      -80.5079   29.6126  -75.8949 H         1 UNK         0.0836 
    112 H112      -77.9435   25.8011  -78.0756 H         1 UNK         0.3022 
    113 H113      -77.4184   23.4042  -78.7470 H         1 UNK         0.0747 
    114 H114      -77.4887   21.1481  -77.6392 H         1 UNK         0.0793 
    115 H115      -75.8924   21.8655  -77.6222 H         1 UNK         0.0793 
    116 H116      -76.8662   21.8676  -76.1542 H         1 UNK         0.0793 
    117 H117      -79.1707   22.8242  -76.4732 H         1 UNK         0.3047 
    118 H118      -81.8093   24.8761  -77.5288 H         1 UNK         0.0822 
    119 H119      -83.1083   22.7720  -77.8098 H         1 UNK         0.0807 
    120 H120      -81.6174   21.8526  -78.0211 H         1 UNK         0.0807 
    121 H121      -82.0887   23.0594  -79.2094 H         1 UNK         0.0807 
    122 H122      -81.4639   22.6374  -75.6801 H         1 UNK         0.2946 
    123 H123      -81.7869   23.2452  -73.3692 H         1 UNK         0.1144 
    124 H124      -79.4826   23.0500  -72.2684 H         1 UNK         0.0793 
    125 H125      -78.8123   24.0674  -73.5411 H         1 UNK         0.0793 
    126 H126      -79.4696   22.4857  -73.9252 H         1 UNK         0.0793 
    127 H127      -81.2653   26.0100  -73.1321 H         1 UNK         0.2896 
@<TRIPOS>BOND
     1    1    2 1    
     2    1   67 1    
     3    1   68 1    
     4    1   69 1    
     5    2    3 2    
     6    2    4 am   BACKBONE|DICT|INTERRES
     7    4    5 1    
     8    4   70 1    
     9    5    6 1    
    10    5   65 1    
    11    5   71 1    
    12    6    7 1    
    13    6   72 1    
    14    6   73 1    
    15    7    8 1    
    16    8    9 1    
    17    8   74 1    
    18    8   75 1    
    19    9   10 ar   
    20    9   14 ar   
    21   10   11 ar   
    22   10   76 1    
    23   11   12 ar   
    24   11   48 1    
    25   12   13 ar   
    26   12   77 1    
    27   13   14 ar   
    28   13   15 1    
    29   14   78 1    
    30   15   16 1    
    31   15   79 1    
    32   15   80 1    
    33   16   17 1    
    34   17   18 1    
    35   17   81 1    
    36   17   82 1    
    37   18   19 1    
    38   18   22 1    
    39   18   83 1    
    40   19   20 am   BACKBONE|DICT|INTERRES
    41   19   21 2    
    42   20   84 1    
    43   20   85 1    
    44   22   23 am   BACKBONE|DICT|INTERRES
    45   22   86 1    
    46   23   24 2    
    47   23   25 1    
    48   25   26 1    
    49   25   27 1    
    50   25   87 1    
    51   26   88 1    
    52   26   89 1    
    53   26   90 1    
    54   27   28 am   BACKBONE|DICT|INTERRES
    55   27   91 1    
    56   28   29 2    
    57   28   30 1    
    58   30   31 1    
    59   30   32 1    
    60   30   92 1    
    61   31   93 1    
    62   31   94 1    
    63   31   95 1    
    64   32   33 am   BACKBONE|DICT|INTERRES
    65   32   96 1    
    66   33   34 2    
    67   33   35 1    
    68   35   36 1    
    69   35   37 1    
    70   35   97 1    
    71   36   98 1    
    72   36   99 1    
    73   36  100 1    
    74   37   38 am   BACKBONE|DICT|INTERRES
    75   37  101 1    
    76   38   39 2    
    77   38   40 1    
    78   40   41 1    
    79   40   42 1    
    80   40  102 1    
    81   41  103 1    
    82   41  104 1    
    83   41  105 1    
    84   42   43 am   BACKBONE|DICT|INTERRES
    85   42  106 1    
    86   43   44 2    
    87   43   45 1    
    88   45   46 1    
    89   45   49 1    
    90   45  107 1    
    91   46   47 1    
    92   46  108 1    
    93   46  109 1    
    94   47   48 1    
    95   48  110 1    
    96   48  111 1    
    97   49   50 am   BACKBONE|DICT|INTERRES
    98   49  112 1    
    99   50   51 2    
   100   50   52 1    
   101   52   53 1    
   102   52   54 1    
   103   52  113 1    
   104   53  114 1    
   105   53  115 1    
   106   53  116 1    
   107   54   55 am   BACKBONE|DICT|INTERRES
   108   54  117 1    
   109   55   56 2    
   110   55   57 1    
   111   57   58 1    
   112   57   59 1    
   113   57  118 1    
   114   58  119 1    
   115   58  120 1    
   116   58  121 1    
   117   59   60 am   BACKBONE|DICT|INTERRES
   118   59  122 1    
   119   60   61 2    
   120   60   62 1    
   121   62   63 1    
   122   62   64 1    
   123   62  123 1    
   124   63  124 1    
   125   63  125 1    
   126   63  126 1    
   127   64   65 am   BACKBONE|DICT|INTERRES
   128   64  127 1    
   129   65   66 2    
@<TRIPOS>SUBSTRUCTURE
     1 UNK         1 GROUP             0       ****    0 ROOT    
