@<TRIPOS>MOLECULE
3R135
127   129    1
SMALL
USER_CHARGES


@<TRIPOS>ATOM
      1 CA        -81.4090   25.7269  -70.5690 C.3       0 UNK        -0.1998 
      2 C         -82.3745   26.1590  -71.6620 C.2       0 UNK         0.4909 
      3 O         -83.4271   25.5409  -71.8241 O.2       0 UNK        -0.5240 
      4 N         -82.0309   27.2163  -72.4119 N.am      1 UNK        -0.4739 
      5 CA        -82.8248   27.7264  -73.5377 C.3       1 UNK         0.0864 
      6 C6        -82.4963   29.2047  -73.8754 C.3       11 UNK        -0.0881 
      7 S7        -80.7521   29.5075  -74.3300 S.3       11 UNK        -0.2682 
      8 C8        -80.0915   30.3480  -72.8559 C.3       11 UNK         0.0289 
      9 C9        -78.7387   29.7687  -72.4756 C.ar      11 UNK        -0.0687 
     10 C10       -78.6744   28.6354  -71.6632 C.ar      11 UNK        -0.0823 
     11 C11       -77.4458   28.0642  -71.3285 C.ar      11 UNK        -0.0830 
     12 C12       -76.2666   28.6475  -71.7994 C.ar      11 UNK        -0.1021 
     13 C13       -76.3147   29.8017  -72.5892 C.ar      11 UNK        -0.0753 
     14 C14       -77.5540   30.3537  -72.9321 C.ar      11 UNK        -0.0933 
     15 C15       -75.0271   30.4427  -73.0802 C.3       11 UNK         0.0166 
     16 S16       -74.0834   31.1763  -71.7025 S.3       11 UNK        -0.2615 
     17 C17       -72.7606   32.1425  -72.5236 C.3       11 UNK        -0.0865 
     18 CA        -72.1357   31.5087  -73.7970 C.3       10 UNK         0.0862 
     19 C         -71.0832   32.4533  -74.4476 C.2       10 UNK         0.5551 
     20 N         -69.8646   32.0043  -74.7234 N.am      10 UNK        -0.7319 
     21 O         -71.3822   33.6135  -74.7193 O.2       10 UNK        -0.5018 
     22 N         -71.6308   30.1484  -73.5358 N.am      10 UNK        -0.4509 
     23 C         -71.7999   29.1119  -74.3632 C.2       10 UNK         0.4899 
     24 O         -72.3884   29.1989  -75.4444 O.2       10 UNK        -0.4839 
     25 CA        -71.2374   27.7576  -73.8931 C.3       9 UNK         0.0222 
     26 CB        -71.6997   27.4099  -72.4642 C.3       9 UNK        -0.1966 
     27 N         -71.7149   26.7219  -74.8039 N.am      9 UNK        -0.4218 
     28 C         -70.9640   25.9765  -75.6219 C.2       9 UNK         0.5020 
     29 O         -69.7344   25.9153  -75.5741 O.2       9 UNK        -0.5274 
     30 CA        -71.7232   25.1992  -76.7128 C.3       8 UNK         0.0270 
     31 CB        -72.3731   23.9299  -76.1371 C.3       8 UNK        -0.1976 
     32 N         -72.7492   26.0280  -77.3512 N.am      8 UNK        -0.4313 
     33 C         -72.5161   27.1111  -78.1051 C.2       8 UNK         0.5041 
     34 O         -71.3928   27.4391  -78.4907 O.2       8 UNK        -0.5577 
     35 CA        -73.7189   28.0031  -78.4789 C.3       7 UNK         0.0284 
     36 CB        -74.2988   27.6127  -79.8534 C.3       7 UNK        -0.1958 
     37 N         -74.7672   28.0919  -77.4467 N.am      7 UNK        -0.4454 
     38 C         -75.5926   27.1277  -77.0215 C.2       7 UNK         0.5089 
     39 O         -75.6076   25.9872  -77.4876 O.2       7 UNK        -0.5125 
     40 CA        -76.5262   27.4777  -75.8503 C.3       6 UNK         0.0408 
     41 CB        -77.9201   27.8539  -76.3693 C.3       6 UNK        -0.1791 
     42 N         -76.6347   26.3516  -74.9165 N.am      6 UNK        -0.4762 
     43 C         -75.6019   25.9108  -74.1800 C.2       6 UNK         0.5007 
     44 O         -74.5075   26.4759  -74.1647 O.2       6 UNK        -0.5032 
     45 CA        -75.7540   24.6078  -73.3766 C.3       5 UNK         0.0783 
     46 C46       -75.9878   24.8358  -71.8626 C.3       11 UNK        -0.0857 
     47 S47       -77.6920   25.3126  -71.4124 S.3       11 UNK        -0.2512 
     48 C48       -77.4115   26.8283  -70.4450 C.3       11 UNK         0.0225 
     49 N         -76.7014   23.6732  -73.9882 N.am      5 UNK        -0.4615 
     50 C         -76.5359   22.3436  -74.0025 C.2       4 UNK         0.5053 
     51 O         -75.6072   21.7644  -73.4378 O.2       4 UNK        -0.5105 
     52 CA        -77.5613   21.5064  -74.7924 C.3       4 UNK         0.0263 
     53 CB        -78.6379   20.9486  -73.8475 C.3       4 UNK        -0.1981 
     54 N         -78.2117   22.2589  -75.8657 N.am      4 UNK        -0.4224 
     55 C         -77.5937   22.7770  -76.9365 C.2       3 UNK         0.4895 
     56 O         -76.4268   22.5191  -77.2333 O.2       3 UNK        -0.5091 
     57 CA        -78.3953   23.7605  -77.8157 C.3       3 UNK         0.0250 
     58 CB        -78.5190   23.2279  -79.2536 C.3       3 UNK        -0.1996 
     59 N         -79.7363   24.1105  -77.3253 N.am      3 UNK        -0.4254 
     60 C         -80.0357   24.7366  -76.1783 C.2       2 UNK         0.5004 
     61 O         -79.2029   25.0497  -75.3204 O.2       2 UNK        -0.5226 
     62 CA        -81.5275   24.9856  -75.9356 C.3       2 UNK         0.0269 
     63 CB        -82.2366   23.6832  -75.5176 C.3       2 UNK        -0.1926 
     64 N         -81.7053   25.9876  -74.8900 N.am      2 UNK        -0.4687 
     65 C         -82.7599   26.8073  -74.7791 C.2       1 UNK         0.5165 
     66 O         -83.6815   26.8397  -75.5968 O.2       1 UNK        -0.5079 
     67 H67       -81.9589   25.3590  -69.7030 H         1 UNK         0.0900 
     68 H68       -80.7780   26.5482  -70.2344 H         1 UNK         0.0900 
     69 H69       -80.7688   24.9228  -70.9308 H         1 UNK         0.0900 
     70 H70       -81.1482   27.6805  -72.2642 H         1 UNK         0.2959 
     71 H71       -83.8710   27.7085  -73.2227 H         1 UNK         0.1079 
     72 H72       -83.1218   29.5468  -74.7023 H         1 UNK         0.0837 
     73 H73       -82.7727   29.8414  -73.0340 H         1 UNK         0.0837 
     74 H74       -80.0082   31.4165  -73.0599 H         1 UNK         0.0685 
     75 H75       -80.7763   30.2502  -72.0125 H         1 UNK         0.0685 
     76 H76       -79.5840   28.1918  -71.2919 H         1 UNK         0.1434 
     77 H77       -75.3091   28.2139  -71.5449 H         1 UNK         0.1329 
     78 H78       -77.5990   31.2360  -73.5557 H         1 UNK         0.1335 
     79 H79       -74.4344   29.6766  -73.5772 H         1 UNK         0.0680 
     80 H80       -75.2398   31.2122  -73.8237 H         1 UNK         0.0680 
     81 H81       -71.9825   32.3331  -71.7822 H         1 UNK         0.1032 
     82 H82       -73.1831   33.1202  -72.7635 H         1 UNK         0.1032 
     83 H83       -72.9313   31.4532  -74.5409 H         1 UNK         0.0461 
     84 H84       -69.1934   32.6238  -75.1496 H         1 UNK         0.3453 
     85 H85       -69.6138   31.0507  -74.5181 H         1 UNK         0.3453 
     86 H86       -71.1351   30.0166  -72.6665 H         1 UNK         0.2984 
     87 H87       -70.1478   27.8181  -73.9147 H         1 UNK         0.0554 
     88 H88       -71.4100   26.3951  -72.1915 H         1 UNK         0.0847 
     89 H89       -72.7831   27.4847  -72.3600 H         1 UNK         0.0847 
     90 H90       -71.2541   28.0766  -71.7257 H         1 UNK         0.0847 
     91 H91       -72.7253   26.7032  -74.9159 H         1 UNK         0.3141 
     92 H92       -71.0037   24.9018  -77.4786 H         1 UNK         0.0743 
     93 H93       -73.1225   24.1646  -75.3809 H         1 UNK         0.0784 
     94 H94       -72.8605   23.3450  -76.9176 H         1 UNK         0.0784 
     95 H95       -71.6260   23.2877  -75.6688 H         1 UNK         0.0784 
     96 H96       -73.7220   25.8083  -77.1557 H         1 UNK         0.3213 
     97 H97       -73.3239   29.0165  -78.5698 H         1 UNK         0.0855 
     98 H98       -73.5333   27.6779  -80.6276 H         1 UNK         0.0814 
     99 H99       -75.1119   28.2774  -80.1448 H         1 UNK         0.0814 
    100 H100      -74.6790   26.5910  -79.8643 H         1 UNK         0.0814 
    101 H101      -74.7847   28.9713  -76.9477 H         1 UNK         0.3105 
    102 H102      -76.1189   28.3303  -75.3026 H         1 UNK         0.0547 
    103 H103      -77.8880   28.7842  -76.9371 H         1 UNK         0.0837 
    104 H104      -78.3291   27.0855  -77.0255 H         1 UNK         0.0837 
    105 H105      -78.6184   27.9968  -75.5463 H         1 UNK         0.0837 
    106 H106      -77.5237   25.8613  -74.9128 H         1 UNK         0.3020 
    107 H107      -74.7642   24.1519  -73.4590 H         1 UNK         0.1245 
    108 H108      -75.2745   25.5673  -71.4789 H         1 UNK         0.0781 
    109 H109      -75.7653   23.9118  -71.3269 H         1 UNK         0.0781 
    110 H110      -76.4713   26.7664  -69.8950 H         1 UNK         0.0836 
    111 H111      -78.1916   26.9040  -69.6861 H         1 UNK         0.0836 
    112 H112      -77.5040   24.0741  -74.4579 H         1 UNK         0.3022 
    113 H113      -77.0266   20.6685  -75.2446 H         1 UNK         0.0747 
    114 H114      -79.3342   20.2981  -74.3772 H         1 UNK         0.0793 
    115 H115      -78.1870   20.3568  -73.0496 H         1 UNK         0.0793 
    116 H116      -79.2134   21.7464  -73.3756 H         1 UNK         0.0793 
    117 H117      -79.1709   22.5290  -75.7080 H         1 UNK         0.3047 
    118 H118      -77.8177   24.6850  -77.8479 H         1 UNK         0.0822 
    119 H119      -78.9933   23.9583  -79.9094 H         1 UNK         0.0807 
    120 H120      -79.1031   22.3076  -79.2936 H         1 UNK         0.0807 
    121 H121      -77.5375   23.0098  -79.6773 H         1 UNK         0.0807 
    122 H122      -80.4982   23.8664  -77.9423 H         1 UNK         0.2946 
    123 H123      -81.9605   25.3571  -76.8675 H         1 UNK         0.1144 
    124 H124      -82.1326   22.9089  -76.2786 H         1 UNK         0.0793 
    125 H125      -83.3048   23.8437  -75.3700 H         1 UNK         0.0793 
    126 H126      -81.8298   23.2859  -74.5865 H         1 UNK         0.0793 
    127 H127      -80.9461   26.0540  -74.2243 H         1 UNK         0.2896 
@<TRIPOS>BOND
     1    1    2 1    
     2    1   67 1    
     3    1   68 1    
     4    1   69 1    
     5    2    3 2    
     6    2    4 am   BACKBONE|DICT|INTERRES
     7    4    5 1    
     8    4   70 1    
     9    5    6 1    
    10    5   65 1    
    11    5   71 1    
    12    6    7 1    
    13    6   72 1    
    14    6   73 1    
    15    7    8 1    
    16    8    9 1    
    17    8   74 1    
    18    8   75 1    
    19    9   10 ar   
    20    9   14 ar   
    21   10   11 ar   
    22   10   76 1    
    23   11   12 ar   
    24   11   48 1    
    25   12   13 ar   
    26   12   77 1    
    27   13   14 ar   
    28   13   15 1    
    29   14   78 1    
    30   15   16 1    
    31   15   79 1    
    32   15   80 1    
    33   16   17 1    
    34   17   18 1    
    35   17   81 1    
    36   17   82 1    
    37   18   19 1    
    38   18   22 1    
    39   18   83 1    
    40   19   20 am   BACKBONE|DICT|INTERRES
    41   19   21 2    
    42   20   84 1    
    43   20   85 1    
    44   22   23 am   BACKBONE|DICT|INTERRES
    45   22   86 1    
    46   23   24 2    
    47   23   25 1    
    48   25   26 1    
    49   25   27 1    
    50   25   87 1    
    51   26   88 1    
    52   26   89 1    
    53   26   90 1    
    54   27   28 am   BACKBONE|DICT|INTERRES
    55   27   91 1    
    56   28   29 2    
    57   28   30 1    
    58   30   31 1    
    59   30   32 1    
    60   30   92 1    
    61   31   93 1    
    62   31   94 1    
    63   31   95 1    
    64   32   33 am   BACKBONE|DICT|INTERRES
    65   32   96 1    
    66   33   34 2    
    67   33   35 1    
    68   35   36 1    
    69   35   37 1    
    70   35   97 1    
    71   36   98 1    
    72   36   99 1    
    73   36  100 1    
    74   37   38 am   BACKBONE|DICT|INTERRES
    75   37  101 1    
    76   38   39 2    
    77   38   40 1    
    78   40   41 1    
    79   40   42 1    
    80   40  102 1    
    81   41  103 1    
    82   41  104 1    
    83   41  105 1    
    84   42   43 am   BACKBONE|DICT|INTERRES
    85   42  106 1    
    86   43   44 2    
    87   43   45 1    
    88   45   46 1    
    89   45   49 1    
    90   45  107 1    
    91   46   47 1    
    92   46  108 1    
    93   46  109 1    
    94   47   48 1    
    95   48  110 1    
    96   48  111 1    
    97   49   50 am   BACKBONE|DICT|INTERRES
    98   49  112 1    
    99   50   51 2    
   100   50   52 1    
   101   52   53 1    
   102   52   54 1    
   103   52  113 1    
   104   53  114 1    
   105   53  115 1    
   106   53  116 1    
   107   54   55 am   BACKBONE|DICT|INTERRES
   108   54  117 1    
   109   55   56 2    
   110   55   57 1    
   111   57   58 1    
   112   57   59 1    
   113   57  118 1    
   114   58  119 1    
   115   58  120 1    
   116   58  121 1    
   117   59   60 am   BACKBONE|DICT|INTERRES
   118   59  122 1    
   119   60   61 2    
   120   60   62 1    
   121   62   63 1    
   122   62   64 1    
   123   62  123 1    
   124   63  124 1    
   125   63  125 1    
   126   63  126 1    
   127   64   65 am   BACKBONE|DICT|INTERRES
   128   64  127 1    
   129   65   66 2    
@<TRIPOS>SUBSTRUCTURE
     1 UNK         1 GROUP             0       ****    0 ROOT    
