@<TRIPOS>MOLECULE
3R135
127   129    1
SMALL
USER_CHARGES


@<TRIPOS>ATOM
      1 CA        -80.3913   21.3958  -72.5695 C.3       0 UNK        -0.1998 
      2 C         -80.9276   22.8186  -72.5762 C.2       0 UNK         0.4909 
      3 O         -81.8887   23.1048  -73.2914 O.2       0 UNK        -0.5240 
      4 N         -80.3101   23.7172  -71.7956 N.am      1 UNK        -0.4739 
      5 CA        -80.6728   25.1357  -71.6943 C.3       1 UNK         0.0864 
      6 C6        -79.8538   25.8542  -70.5948 C.3       11 UNK        -0.0881 
      7 S7        -80.6397   27.4171  -70.0738 S.3       11 UNK        -0.2682 
      8 C8        -79.2008   28.4260  -69.5875 C.3       11 UNK         0.0289 
      9 C9        -78.2664   28.7325  -70.7517 C.ar      11 UNK        -0.0687 
     10 C10       -78.7384   29.4120  -71.8801 C.ar      11 UNK        -0.0823 
     11 C11       -77.8865   29.6939  -72.9526 C.ar      11 UNK        -0.0830 
     12 C12       -76.5454   29.3069  -72.8705 C.ar      11 UNK        -0.1021 
     13 C13       -76.0558   28.6331  -71.7513 C.ar      11 UNK        -0.0753 
     14 C14       -76.9233   28.3454  -70.6941 C.ar      11 UNK        -0.0933 
     15 C15       -74.6133   28.1486  -71.7204 C.3       11 UNK         0.0166 
     16 S16       -73.5519   29.0370  -70.5333 S.3       11 UNK        -0.2615 
     17 C17       -73.0695   30.6693  -71.2263 C.3       11 UNK        -0.0865 
     18 CA        -73.5156   31.0854  -72.6622 C.3       10 UNK         0.0862 
     19 C         -73.2585   32.6001  -72.9495 C.2       10 UNK         0.5551 
     20 N         -73.0119   33.0053  -74.1898 N.am      10 UNK        -0.7319 
     21 O         -73.3149   33.4301  -72.0451 O.2       10 UNK        -0.5018 
     22 N         -73.0363   30.1850  -73.7315 N.am      10 UNK        -0.4509 
     23 C         -71.7601   29.9735  -74.0795 C.2       10 UNK         0.4899 
     24 O         -70.7912   30.4583  -73.4925 O.2       10 UNK        -0.4839 
     25 CA        -71.5543   29.0873  -75.3224 C.3       9 UNK         0.0222 
     26 CB        -70.0843   29.0315  -75.7913 C.3       9 UNK        -0.1966 
     27 N         -72.1023   27.7360  -75.1585 N.am      9 UNK        -0.4218 
     28 C         -71.7168   26.8009  -74.2751 C.2       9 UNK         0.5020 
     29 O         -70.8645   26.9793  -73.4044 O.2       9 UNK        -0.5274 
     30 CA        -72.3674   25.4099  -74.3921 C.3       8 UNK         0.0270 
     31 CB        -73.5562   25.2645  -73.4312 C.3       8 UNK        -0.1976 
     32 N         -72.8074   25.0727  -75.7464 N.am      8 UNK        -0.4313 
     33 C         -71.9958   24.7893  -76.7740 C.2       8 UNK         0.5041 
     34 O         -70.7663   24.8060  -76.7055 O.2       8 UNK        -0.5577 
     35 CA        -72.6729   24.4149  -78.1001 C.3       7 UNK         0.0284 
     36 CB        -73.1158   22.9422  -78.0836 C.3       7 UNK        -0.1958 
     37 N         -73.8325   25.2683  -78.3626 N.am      7 UNK        -0.4454 
     38 C         -73.7928   26.3997  -79.0775 C.2       7 UNK         0.5089 
     39 O         -72.7812   26.8203  -79.6398 O.2       7 UNK        -0.5125 
     40 CA        -75.1009   27.2042  -79.1969 C.3       6 UNK         0.0408 
     41 CB        -75.8432   26.8267  -80.4886 C.3       6 UNK        -0.1791 
     42 N         -76.0119   27.0544  -78.0581 N.am      6 UNK        -0.4762 
     43 C         -75.7536   27.4775  -76.8126 C.2       6 UNK         0.5007 
     44 O         -74.6847   27.9830  -76.4638 O.2       6 UNK        -0.5032 
     45 CA        -76.8644   27.2600  -75.7651 C.3       5 UNK         0.0783 
     46 C46       -78.0427   28.2523  -75.9509 C.3       11 UNK        -0.0857 
     47 S47       -77.6066   30.0140  -75.7511 S.3       11 UNK        -0.2512 
     48 C48       -78.4321   30.4332  -74.1739 C.3       11 UNK         0.0225 
     49 N         -77.3755   25.8873  -75.6658 N.am      5 UNK        -0.4615 
     50 C         -76.7162   24.7245  -75.7665 C.2       4 UNK         0.5053 
     51 O         -75.5336   24.6182  -76.0867 O.2       4 UNK        -0.5105 
     52 CA        -77.5079   23.4505  -75.4380 C.3       4 UNK         0.0263 
     53 CB        -77.2530   23.0376  -73.9797 C.3       4 UNK        -0.1981 
     54 N         -78.9480   23.6159  -75.6541 N.am      4 UNK        -0.4224 
     55 C         -79.5634   23.4250  -76.8301 C.2       3 UNK         0.4895 
     56 O         -78.9857   23.0481  -77.8500 O.2       3 UNK        -0.5091 
     57 CA        -81.0777   23.6943  -76.8879 C.3       3 UNK         0.0250 
     58 CB        -81.8642   22.3914  -76.6712 C.3       3 UNK        -0.1996 
     59 N         -81.5148   24.7001  -75.9153 N.am      3 UNK        -0.4254 
     60 C         -81.3502   26.0217  -76.0837 C.2       2 UNK         0.5004 
     61 O         -80.8643   26.5233  -77.0971 O.2       2 UNK        -0.5226 
     62 CA        -81.7690   26.9472  -74.9240 C.3       2 UNK         0.0269 
     63 CB        -83.2054   27.4513  -75.1344 C.3       2 UNK        -0.1926 
     64 N         -81.6620   26.3382  -73.5940 N.am      2 UNK        -0.4687 
     65 C         -80.5403   25.8297  -73.0654 C.2       1 UNK         0.5165 
     66 O         -79.4519   25.8287  -73.6438 O.2       1 UNK        -0.5079 
     67 H67       -79.5207   21.2904  -71.9225 H         1 UNK         0.0900 
     68 H68       -80.1043   21.0988  -73.5779 H         1 UNK         0.0900 
     69 H69       -81.1605   20.7085  -72.2187 H         1 UNK         0.0900 
     70 H70       -79.5148   23.4287  -71.2441 H         1 UNK         0.2959 
     71 H71       -81.7240   25.1569  -71.3973 H         1 UNK         0.1079 
     72 H72       -79.7820   25.2239  -69.7070 H         1 UNK         0.0837 
     73 H73       -78.8274   26.0271  -70.9242 H         1 UNK         0.0837 
     74 H74       -78.6691   27.9145  -68.7836 H         1 UNK         0.0685 
     75 H75       -79.5585   29.3672  -69.1680 H         1 UNK         0.0685 
     76 H76       -79.7765   29.7125  -71.9228 H         1 UNK         0.1434 
     77 H77       -75.8791   29.5139  -73.6937 H         1 UNK         0.1329 
     78 H78       -76.5495   27.8139  -69.8296 H         1 UNK         0.1335 
     79 H79       -74.6308   27.1044  -71.4084 H         1 UNK         0.0680 
     80 H80       -74.1677   28.1426  -72.7122 H         1 UNK         0.0680 
     81 H81       -73.4515   31.3956  -70.5068 H         1 UNK         0.1032 
     82 H82       -71.9843   30.7457  -71.1468 H         1 UNK         0.1032 
     83 H83       -74.5991   31.0282  -72.6765 H         1 UNK         0.0461 
     84 H84       -72.8585   33.9856  -74.3666 H         1 UNK         0.3453 
     85 H85       -72.9772   32.3441  -74.9482 H         1 UNK         0.3453 
     86 H86       -73.7518   29.7632  -74.3049 H         1 UNK         0.2984 
     87 H87       -72.1295   29.5477  -76.1272 H         1 UNK         0.0554 
     88 H88       -69.7083   30.0309  -76.0134 H         1 UNK         0.0847 
     89 H89       -69.9806   28.4365  -76.6988 H         1 UNK         0.0847 
     90 H90       -69.4297   28.6011  -75.0328 H         1 UNK         0.0847 
     91 H91       -72.8756   27.5118  -75.7785 H         1 UNK         0.3141 
     92 H92       -71.6113   24.6780  -74.0996 H         1 UNK         0.0743 
     93 H93       -73.2542   25.4838  -72.4066 H         1 UNK         0.0784 
     94 H94       -74.3740   25.9352  -73.6958 H         1 UNK         0.0784 
     95 H95       -73.9471   24.2470  -73.4395 H         1 UNK         0.0784 
     96 H96       -73.8132   24.9833  -75.8885 H         1 UNK         0.3213 
     97 H97       -71.9366   24.5342  -78.8982 H         1 UNK         0.0855 
     98 H98       -73.8565   22.7471  -77.3069 H         1 UNK         0.0814 
     99 H99       -72.2670   22.2827  -77.8976 H         1 UNK         0.0814 
    100 H100      -73.5495   22.6495  -79.0398 H         1 UNK         0.0814 
    101 H101      -74.6906   25.0329  -77.8752 H         1 UNK         0.3105 
    102 H102      -74.8266   28.2594  -79.2606 H         1 UNK         0.0547 
    103 H103      -75.1996   26.9547  -81.3603 H         1 UNK         0.0837 
    104 H104      -76.1715   25.7866  -80.4769 H         1 UNK         0.0837 
    105 H105      -76.7203   27.4555  -80.6423 H         1 UNK         0.0837 
    106 H106      -76.9052   26.6193  -78.2404 H         1 UNK         0.3020 
    107 H107      -76.4071   27.4506  -74.7952 H         1 UNK         0.1245 
    108 H108      -78.8243   28.0183  -75.2288 H         1 UNK         0.0781 
    109 H109      -78.5032   28.1223  -76.9320 H         1 UNK         0.0781 
    110 H110      -78.3240   31.5048  -74.0021 H         1 UNK         0.0836 
    111 H111      -79.5016   30.2456  -74.2832 H         1 UNK         0.0836 
    112 H112      -78.3166   25.8258  -75.2942 H         1 UNK         0.3022 
    113 H113      -77.1331   22.6542  -76.0847 H         1 UNK         0.0747 
    114 H114      -76.1862   22.9065  -73.7930 H         1 UNK         0.0793 
    115 H115      -77.7365   22.0896  -73.7470 H         1 UNK         0.0793 
    116 H116      -77.6162   23.7868  -73.2751 H         1 UNK         0.0793 
    117 H117      -79.4832   23.9858  -74.8795 H         1 UNK         0.3047 
    118 H118      -81.3075   24.0601  -77.8913 H         1 UNK         0.0822 
    119 H119      -81.6036   21.6500  -77.4279 H         1 UNK         0.0807 
    120 H120      -82.9390   22.5597  -76.7403 H         1 UNK         0.0807 
    121 H121      -81.6560   21.9468  -75.6978 H         1 UNK         0.0807 
    122 H122      -81.9015   24.3566  -75.0422 H         1 UNK         0.2946 
    123 H123      -81.1033   27.8116  -74.9421 H         1 UNK         0.1144 
    124 H124      -83.4836   28.1864  -74.3789 H         1 UNK         0.0793 
    125 H125      -83.9294   26.6364  -75.0950 H         1 UNK         0.0793 
    126 H126      -83.3110   27.9344  -76.1070 H         1 UNK         0.0793 
    127 H127      -82.5188   26.2720  -73.0632 H         1 UNK         0.2896 
@<TRIPOS>BOND
     1    1    2 1    
     2    1   67 1    
     3    1   68 1    
     4    1   69 1    
     5    2    3 2    
     6    2    4 am   BACKBONE|DICT|INTERRES
     7    4    5 1    
     8    4   70 1    
     9    5    6 1    
    10    5   65 1    
    11    5   71 1    
    12    6    7 1    
    13    6   72 1    
    14    6   73 1    
    15    7    8 1    
    16    8    9 1    
    17    8   74 1    
    18    8   75 1    
    19    9   10 ar   
    20    9   14 ar   
    21   10   11 ar   
    22   10   76 1    
    23   11   12 ar   
    24   11   48 1    
    25   12   13 ar   
    26   12   77 1    
    27   13   14 ar   
    28   13   15 1    
    29   14   78 1    
    30   15   16 1    
    31   15   79 1    
    32   15   80 1    
    33   16   17 1    
    34   17   18 1    
    35   17   81 1    
    36   17   82 1    
    37   18   19 1    
    38   18   22 1    
    39   18   83 1    
    40   19   20 am   BACKBONE|DICT|INTERRES
    41   19   21 2    
    42   20   84 1    
    43   20   85 1    
    44   22   23 am   BACKBONE|DICT|INTERRES
    45   22   86 1    
    46   23   24 2    
    47   23   25 1    
    48   25   26 1    
    49   25   27 1    
    50   25   87 1    
    51   26   88 1    
    52   26   89 1    
    53   26   90 1    
    54   27   28 am   BACKBONE|DICT|INTERRES
    55   27   91 1    
    56   28   29 2    
    57   28   30 1    
    58   30   31 1    
    59   30   32 1    
    60   30   92 1    
    61   31   93 1    
    62   31   94 1    
    63   31   95 1    
    64   32   33 am   BACKBONE|DICT|INTERRES
    65   32   96 1    
    66   33   34 2    
    67   33   35 1    
    68   35   36 1    
    69   35   37 1    
    70   35   97 1    
    71   36   98 1    
    72   36   99 1    
    73   36  100 1    
    74   37   38 am   BACKBONE|DICT|INTERRES
    75   37  101 1    
    76   38   39 2    
    77   38   40 1    
    78   40   41 1    
    79   40   42 1    
    80   40  102 1    
    81   41  103 1    
    82   41  104 1    
    83   41  105 1    
    84   42   43 am   BACKBONE|DICT|INTERRES
    85   42  106 1    
    86   43   44 2    
    87   43   45 1    
    88   45   46 1    
    89   45   49 1    
    90   45  107 1    
    91   46   47 1    
    92   46  108 1    
    93   46  109 1    
    94   47   48 1    
    95   48  110 1    
    96   48  111 1    
    97   49   50 am   BACKBONE|DICT|INTERRES
    98   49  112 1    
    99   50   51 2    
   100   50   52 1    
   101   52   53 1    
   102   52   54 1    
   103   52  113 1    
   104   53  114 1    
   105   53  115 1    
   106   53  116 1    
   107   54   55 am   BACKBONE|DICT|INTERRES
   108   54  117 1    
   109   55   56 2    
   110   55   57 1    
   111   57   58 1    
   112   57   59 1    
   113   57  118 1    
   114   58  119 1    
   115   58  120 1    
   116   58  121 1    
   117   59   60 am   BACKBONE|DICT|INTERRES
   118   59  122 1    
   119   60   61 2    
   120   60   62 1    
   121   62   63 1    
   122   62   64 1    
   123   62  123 1    
   124   63  124 1    
   125   63  125 1    
   126   63  126 1    
   127   64   65 am   BACKBONE|DICT|INTERRES
   128   64  127 1    
   129   65   66 2    
@<TRIPOS>SUBSTRUCTURE
     1 UNK         1 GROUP             0       ****    0 ROOT    
