@<TRIPOS>MOLECULE
3R135
127   129    1
SMALL
USER_CHARGES


@<TRIPOS>ATOM
      1 CA        -80.3057   31.3128  -79.2354 C.3       0 UNK        -0.1998 
      2 C         -79.8935   30.1646  -78.3263 C.2       0 UNK         0.4909 
      3 O         -79.5975   29.0739  -78.8148 O.2       0 UNK        -0.5240 
      4 N         -79.8648   30.4040  -77.0089 N.am      1 UNK        -0.4739 
      5 CA        -79.5545   29.3993  -75.9867 C.3       1 UNK         0.0864 
      6 C6        -79.1327   30.0734  -74.6563 C.3       11 UNK        -0.0881 
      7 S7        -78.0043   29.0144  -73.6977 S.3       11 UNK        -0.2682 
      8 C8        -78.7483   29.0644  -72.0403 C.3       11 UNK         0.0289 
      9 C9        -77.9235   28.2064  -71.0976 C.ar      11 UNK        -0.0687 
     10 C10       -78.2725   26.8721  -70.8776 C.ar      11 UNK        -0.0823 
     11 C11       -77.4327   26.0345  -70.1361 C.ar      11 UNK        -0.0830 
     12 C12       -76.2682   26.5551  -69.5639 C.ar      11 UNK        -0.1021 
     13 C13       -75.9131   27.8904  -69.7775 C.ar      11 UNK        -0.0753 
     14 C14       -76.7523   28.7162  -70.5308 C.ar      11 UNK        -0.0933 
     15 C15       -74.5754   28.4116  -69.2815 C.3       11 UNK         0.0166 
     16 S16       -73.2893   28.0911  -70.5323 S.3       11 UNK        -0.2615 
     17 C17       -72.5805   29.7529  -70.7877 C.3       11 UNK        -0.0865 
     18 CA        -73.4138   30.6577  -71.7349 C.3       10 UNK         0.0862 
     19 C         -72.7239   32.0432  -71.8791 C.2       10 UNK         0.5551 
     20 N         -73.1427   33.0303  -71.0989 N.am      10 UNK        -0.7319 
     21 O         -71.7809   32.2118  -72.6495 O.2       10 UNK        -0.5018 
     22 N         -73.6872   30.0010  -73.0238 N.am      10 UNK        -0.4509 
     23 C         -74.4152   30.5121  -74.0271 C.2       10 UNK         0.4899 
     24 O         -74.9739   31.6088  -73.9728 O.2       10 UNK        -0.4839 
     25 CA        -74.5940   29.6442  -75.2909 C.3       9 UNK         0.0222 
     26 CB        -74.6473   30.4824  -76.5854 C.3       9 UNK        -0.1966 
     27 N         -73.6438   28.5327  -75.4134 N.am      9 UNK        -0.4218 
     28 C         -72.3200   28.5886  -75.6268 C.2       9 UNK         0.5020 
     29 O         -71.6751   29.6316  -75.7326 O.2       9 UNK        -0.5274 
     30 CA        -71.5938   27.2397  -75.7464 C.3       8 UNK         0.0270 
     31 CB        -71.3096   26.6571  -74.3508 C.3       8 UNK        -0.1976 
     32 N         -72.3896   26.2858  -76.5231 N.am      8 UNK        -0.4313 
     33 C         -72.2550   26.0642  -77.8383 C.2       8 UNK         0.5041 
     34 O         -71.3647   26.5607  -78.5299 O.2       8 UNK        -0.5577 
     35 CA        -73.2916   25.1374  -78.5055 C.3       7 UNK         0.0284 
     36 CB        -72.8088   23.6785  -78.4748 C.3       7 UNK        -0.1958 
     37 N         -74.6186   25.2191  -77.8895 N.am      7 UNK        -0.4454 
     38 C         -75.4114   26.3012  -77.9275 C.2       7 UNK         0.5089 
     39 O         -75.1644   27.3007  -78.6014 O.2       7 UNK        -0.5125 
     40 CA        -76.6770   26.2903  -77.0452 C.3       6 UNK         0.0408 
     41 CB        -77.9205   26.0130  -77.9036 C.3       6 UNK        -0.1791 
     42 N         -76.6494   25.3381  -75.9287 N.am      6 UNK        -0.4762 
     43 C         -75.7176   25.2684  -74.9652 C.2       6 UNK         0.5007 
     44 O         -74.7475   26.0235  -74.9032 O.2       6 UNK        -0.5032 
     45 CA        -75.8610   24.1511  -73.9139 C.3       5 UNK         0.0783 
     46 C46       -76.4957   24.7486  -72.6436 C.3       11 UNK        -0.0857 
     47 S47       -76.6109   23.6062  -71.2235 S.3       11 UNK        -0.2512 
     48 C48       -77.7077   24.5369  -70.0875 C.3       11 UNK         0.0225 
     49 N         -76.5990   22.9875  -74.4143 N.am      5 UNK        -0.4615 
     50 C         -76.2122   22.1985  -75.4281 C.2       4 UNK         0.5053 
     51 O         -75.1678   22.3652  -76.0592 O.2       4 UNK        -0.5105 
     52 CA        -77.1506   21.0409  -75.8176 C.3       4 UNK         0.0263 
     53 CB        -76.6272   19.7129  -75.2475 C.3       4 UNK        -0.1981 
     54 N         -78.5298   21.2491  -75.3658 N.am      4 UNK        -0.4224 
     55 C         -79.3811   22.1346  -75.9022 C.2       3 UNK         0.4895 
     56 O         -79.1320   22.7818  -76.9217 O.2       3 UNK        -0.5091 
     57 CA        -80.7296   22.3381  -75.1748 C.3       3 UNK         0.0250 
     58 CB        -80.7078   21.8896  -73.6939 C.3       3 UNK        -0.1996 
     59 N         -81.2310   23.7173  -75.2624 N.am      3 UNK        -0.4254 
     60 C         -80.5808   24.8343  -74.9041 C.2       2 UNK         0.5004 
     61 O         -79.4245   24.8631  -74.4757 O.2       2 UNK        -0.5226 
     62 CA        -81.3690   26.1432  -75.0080 C.3       2 UNK         0.0269 
     63 CB        -82.1633   26.4014  -73.7139 C.3       2 UNK        -0.1926 
     64 N         -80.4282   27.2340  -75.2405 N.am      2 UNK        -0.4687 
     65 C         -80.7286   28.4139  -75.7909 C.2       1 UNK         0.5165 
     66 O         -81.8739   28.7394  -76.1173 O.2       1 UNK        -0.5079 
     67 H67       -81.1969   31.0414  -79.8006 H         1 UNK         0.0900 
     68 H68       -80.5240   32.2206  -78.6732 H         1 UNK         0.0900 
     69 H69       -79.5077   31.5359  -79.9431 H         1 UNK         0.0900 
     70 H70       -80.1546   31.3078  -76.6639 H         1 UNK         0.2959 
     71 H71       -78.7073   28.8237  -76.3671 H         1 UNK         0.1079 
     72 H72       -78.5858   30.9966  -74.8562 H         1 UNK         0.0837 
     73 H73       -79.9993   30.3639  -74.0586 H         1 UNK         0.0837 
     74 H74       -79.7782   28.7064  -72.0877 H         1 UNK         0.0685 
     75 H75       -78.7836   30.0942  -71.6816 H         1 UNK         0.0685 
     76 H76       -79.1515   26.4643  -71.3586 H         1 UNK         0.1434 
     77 H77       -75.5975   25.9004  -69.0241 H         1 UNK         0.1329 
     78 H78       -76.4633   29.7381  -70.7328 H         1 UNK         0.1335 
     79 H79       -74.6473   29.4776  -69.0612 H         1 UNK         0.0680 
     80 H80       -74.2991   27.9212  -68.3469 H         1 UNK         0.0680 
     81 H81       -71.5732   29.6205  -71.1880 H         1 UNK         0.1032 
     82 H82       -72.4507   30.2300  -69.8141 H         1 UNK         0.1032 
     83 H83       -74.3868   30.8199  -71.2685 H         1 UNK         0.0461 
     84 H84       -73.9085   32.9002  -70.4563 H         1 UNK         0.3453 
     85 H85       -72.6940   33.9306  -71.1653 H         1 UNK         0.3453 
     86 H86       -73.2763   29.0886  -73.1474 H         1 UNK         0.2984 
     87 H87       -75.5663   29.1655  -75.1858 H         1 UNK         0.0554 
     88 H88       -75.4755   31.1915  -76.5586 H         1 UNK         0.0847 
     89 H89       -74.7940   29.8506  -77.4614 H         1 UNK         0.0847 
     90 H90       -73.7327   31.0571  -76.7337 H         1 UNK         0.0847 
     91 H91       -74.0556   27.6102  -75.2757 H         1 UNK         0.3141 
     92 H92       -70.6357   27.4145  -76.2408 H         1 UNK         0.0743 
     93 H93       -70.7122   27.3482  -73.7544 H         1 UNK         0.0784 
     94 H94       -72.2265   26.4562  -73.7949 H         1 UNK         0.0784 
     95 H95       -70.7507   25.7237  -74.4200 H         1 UNK         0.0784 
     96 H96       -73.1835   25.8731  -76.0438 H         1 UNK         0.3213 
     97 H97       -73.3856   25.4457  -79.5491 H         1 UNK         0.0855 
     98 H98       -72.7184   23.3038  -77.4542 H         1 UNK         0.0814 
     99 H99       -71.8300   23.5812  -78.9467 H         1 UNK         0.0814 
    100 H100      -73.4937   23.0222  -79.0121 H         1 UNK         0.0814 
    101 H101      -74.9096   24.4324  -77.3230 H         1 UNK         0.3105 
    102 H102      -76.7728   27.2877  -76.6124 H         1 UNK         0.0547 
    103 H103      -77.8893   25.0163  -78.3458 H         1 UNK         0.0837 
    104 H104      -78.0005   26.7315  -78.7207 H         1 UNK         0.0837 
    105 H105      -78.8369   26.0882  -77.3199 H         1 UNK         0.0837 
    106 H106      -77.4289   24.6940  -75.8670 H         1 UNK         0.3020 
    107 H107      -74.8507   23.8165  -73.6686 H         1 UNK         0.1245 
    108 H108      -77.4949   25.1227  -72.8653 H         1 UNK         0.0781 
    109 H109      -75.9109   25.6126  -72.3190 H         1 UNK         0.0781 
    110 H110      -77.5719   24.1669  -69.0704 H         1 UNK         0.0836 
    111 H111      -78.7459   24.3310  -70.3532 H         1 UNK         0.0836 
    112 H112      -77.4803   22.8003  -73.9598 H         1 UNK         0.3022 
    113 H113      -77.1501   20.9707  -76.9076 H         1 UNK         0.0747 
    114 H114      -77.2439   18.8727  -75.5673 H         1 UNK         0.0793 
    115 H115      -75.6107   19.5153  -75.5910 H         1 UNK         0.0793 
    116 H116      -76.6064   19.7203  -74.1569 H         1 UNK         0.0793 
    117 H117      -78.8184   20.7431  -74.5408 H         1 UNK         0.3047 
    118 H118      -81.4530   21.7149  -75.7027 H         1 UNK         0.0822 
    119 H119      -81.6660   22.0866  -73.2125 H         1 UNK         0.0807 
    120 H120      -79.9415   22.4137  -73.1206 H         1 UNK         0.0807 
    121 H121      -80.5277   20.8183  -73.5977 H         1 UNK         0.0807 
    122 H122      -82.1674   23.8098  -75.6307 H         1 UNK         0.2946 
    123 H123      -82.0544   26.0745  -75.8562 H         1 UNK         0.1144 
    124 H124      -82.7526   27.3159  -73.7823 H         1 UNK         0.0793 
    125 H125      -81.5027   26.4932  -72.8507 H         1 UNK         0.0793 
    126 H126      -82.8574   25.5853  -73.5094 H         1 UNK         0.0793 
    127 H127      -79.4734   27.0204  -74.9754 H         1 UNK         0.2896 
@<TRIPOS>BOND
     1    1    2 1    
     2    1   67 1    
     3    1   68 1    
     4    1   69 1    
     5    2    3 2    
     6    2    4 am   BACKBONE|DICT|INTERRES
     7    4    5 1    
     8    4   70 1    
     9    5    6 1    
    10    5   65 1    
    11    5   71 1    
    12    6    7 1    
    13    6   72 1    
    14    6   73 1    
    15    7    8 1    
    16    8    9 1    
    17    8   74 1    
    18    8   75 1    
    19    9   10 ar   
    20    9   14 ar   
    21   10   11 ar   
    22   10   76 1    
    23   11   12 ar   
    24   11   48 1    
    25   12   13 ar   
    26   12   77 1    
    27   13   14 ar   
    28   13   15 1    
    29   14   78 1    
    30   15   16 1    
    31   15   79 1    
    32   15   80 1    
    33   16   17 1    
    34   17   18 1    
    35   17   81 1    
    36   17   82 1    
    37   18   19 1    
    38   18   22 1    
    39   18   83 1    
    40   19   20 am   BACKBONE|DICT|INTERRES
    41   19   21 2    
    42   20   84 1    
    43   20   85 1    
    44   22   23 am   BACKBONE|DICT|INTERRES
    45   22   86 1    
    46   23   24 2    
    47   23   25 1    
    48   25   26 1    
    49   25   27 1    
    50   25   87 1    
    51   26   88 1    
    52   26   89 1    
    53   26   90 1    
    54   27   28 am   BACKBONE|DICT|INTERRES
    55   27   91 1    
    56   28   29 2    
    57   28   30 1    
    58   30   31 1    
    59   30   32 1    
    60   30   92 1    
    61   31   93 1    
    62   31   94 1    
    63   31   95 1    
    64   32   33 am   BACKBONE|DICT|INTERRES
    65   32   96 1    
    66   33   34 2    
    67   33   35 1    
    68   35   36 1    
    69   35   37 1    
    70   35   97 1    
    71   36   98 1    
    72   36   99 1    
    73   36  100 1    
    74   37   38 am   BACKBONE|DICT|INTERRES
    75   37  101 1    
    76   38   39 2    
    77   38   40 1    
    78   40   41 1    
    79   40   42 1    
    80   40  102 1    
    81   41  103 1    
    82   41  104 1    
    83   41  105 1    
    84   42   43 am   BACKBONE|DICT|INTERRES
    85   42  106 1    
    86   43   44 2    
    87   43   45 1    
    88   45   46 1    
    89   45   49 1    
    90   45  107 1    
    91   46   47 1    
    92   46  108 1    
    93   46  109 1    
    94   47   48 1    
    95   48  110 1    
    96   48  111 1    
    97   49   50 am   BACKBONE|DICT|INTERRES
    98   49  112 1    
    99   50   51 2    
   100   50   52 1    
   101   52   53 1    
   102   52   54 1    
   103   52  113 1    
   104   53  114 1    
   105   53  115 1    
   106   53  116 1    
   107   54   55 am   BACKBONE|DICT|INTERRES
   108   54  117 1    
   109   55   56 2    
   110   55   57 1    
   111   57   58 1    
   112   57   59 1    
   113   57  118 1    
   114   58  119 1    
   115   58  120 1    
   116   58  121 1    
   117   59   60 am   BACKBONE|DICT|INTERRES
   118   59  122 1    
   119   60   61 2    
   120   60   62 1    
   121   62   63 1    
   122   62   64 1    
   123   62  123 1    
   124   63  124 1    
   125   63  125 1    
   126   63  126 1    
   127   64   65 am   BACKBONE|DICT|INTERRES
   128   64  127 1    
   129   65   66 2    
@<TRIPOS>SUBSTRUCTURE
     1 UNK         1 GROUP             0       ****    0 ROOT    
