@<TRIPOS>MOLECULE
3R135
127   129    1
SMALL
USER_CHARGES


@<TRIPOS>ATOM
      1 CA        -84.7952   25.1535  -70.6431 C.3       0 UNK        -0.1998 
      2 C         -84.2391   25.6989  -71.9498 C.2       0 UNK         0.4909 
      3 O         -84.9931   25.8876  -72.9052 O.2       0 UNK        -0.5240 
      4 N         -82.9264   25.9596  -71.9991 N.am      1 UNK        -0.4739 
      5 CA        -82.2121   26.4207  -73.1912 C.3       1 UNK         0.0864 
      6 C6        -80.8971   27.1430  -72.8111 C.3       11 UNK        -0.0881 
      7 S7        -80.2181   28.1570  -74.1734 S.3       11 UNK        -0.2682 
      8 C8        -79.7659   29.7112  -73.3210 C.3       11 UNK         0.0289 
      9 C9        -78.3933   29.6390  -72.6576 C.ar      11 UNK        -0.0687 
     10 C10       -78.1545   28.7238  -71.6306 C.ar      11 UNK        -0.0823 
     11 C11       -76.8910   28.6051  -71.0518 C.ar      11 UNK        -0.0830 
     12 C12       -75.8661   29.4613  -71.4630 C.ar      11 UNK        -0.1021 
     13 C13       -76.0974   30.4232  -72.4540 C.ar      11 UNK        -0.0753 
     14 C14       -77.3618   30.4983  -73.0535 C.ar      11 UNK        -0.0933 
     15 C15       -74.9902   31.4022  -72.8343 C.3       11 UNK         0.0166 
     16 S16       -74.6988   31.4930  -74.6308 S.3       11 UNK        -0.2615 
     17 C17       -73.1030   32.3767  -74.6961 C.3       11 UNK        -0.0865 
     18 CA        -71.9222   31.4549  -75.1066 C.3       10 UNK         0.0862 
     19 C         -70.6227   32.2875  -75.3158 C.2       10 UNK         0.5551 
     20 N         -69.5688   32.0889  -74.5331 N.am      10 UNK        -0.7319 
     21 O         -70.5721   33.1303  -76.2083 O.2       10 UNK        -0.5018 
     22 N         -71.7859   30.3059  -74.1944 N.am      10 UNK        -0.4509 
     23 C         -71.1253   29.1730  -74.4658 C.2       10 UNK         0.4899 
     24 O         -70.5071   28.9784  -75.5134 O.2       10 UNK        -0.4839 
     25 CA        -71.1309   28.0810  -73.3791 C.3       9 UNK         0.0222 
     26 CB        -71.9882   28.4247  -72.1414 C.3       9 UNK        -0.1966 
     27 N         -71.6178   26.8277  -73.9512 N.am      9 UNK        -0.4218 
     28 C         -70.8543   25.8176  -74.3864 C.2       9 UNK         0.5020 
     29 O         -69.6240   25.7997  -74.3169 O.2       9 UNK        -0.5274 
     30 CA        -71.5890   24.6070  -74.9888 C.3       8 UNK         0.0270 
     31 CB        -72.1727   23.7169  -73.8791 C.3       8 UNK        -0.1976 
     32 N         -72.6489   24.9898  -75.9253 N.am      8 UNK        -0.4313 
     33 C         -72.4325   25.5199  -77.1381 C.2       8 UNK         0.5041 
     34 O         -71.3125   25.6982  -77.6189 O.2       8 UNK        -0.5577 
     35 CA        -73.6702   25.9064  -77.9657 C.3       7 UNK         0.0284 
     36 CB        -74.2190   24.6885  -78.7265 C.3       7 UNK        -0.1958 
     37 N         -74.7326   26.4904  -77.1477 N.am      7 UNK        -0.4454 
     38 C         -74.6796   27.7022  -76.5793 C.2       7 UNK         0.5089 
     39 O         -73.7639   28.5030  -76.7616 O.2       7 UNK        -0.5125 
     40 CA        -75.8327   28.0726  -75.6289 C.3       6 UNK         0.0408 
     41 CB        -77.0018   28.7042  -76.3993 C.3       6 UNK        -0.1791 
     42 N         -76.3076   26.9429  -74.8254 N.am      6 UNK        -0.4762 
     43 C         -75.5577   26.3201  -73.9036 C.2       6 UNK         0.5007 
     44 O         -74.3953   26.6345  -73.6522 O.2       6 UNK        -0.5032 
     45 CA        -76.1681   25.0900  -73.2002 C.3       5 UNK         0.0783 
     46 C46       -76.9370   25.4493  -71.9060 C.3       11 UNK        -0.0857 
     47 S47       -75.8228   26.0616  -70.5875 S.3       11 UNK        -0.2512 
     48 C48       -76.6563   27.5615  -69.9676 C.3       11 UNK         0.0225 
     49 N         -76.9705   24.2818  -74.1256 N.am      5 UNK        -0.4615 
     50 C         -76.4330   23.5759  -75.1307 C.2       4 UNK         0.5053 
     51 O         -75.2243   23.5342  -75.3640 O.2       4 UNK        -0.5105 
     52 CA        -77.4035   22.8183  -76.0499 C.3       4 UNK         0.0263 
     53 CB        -77.9921   21.5919  -75.3338 C.3       4 UNK        -0.1981 
     54 N         -78.4928   23.6409  -76.5833 N.am      4 UNK        -0.4224 
     55 C         -78.3578   24.7767  -77.2799 C.2       3 UNK         0.4895 
     56 O         -77.2736   25.3194  -77.4811 O.2       3 UNK        -0.5091 
     57 CA        -79.6214   25.4409  -77.8625 C.3       3 UNK         0.0250 
     58 CB        -79.7448   25.1399  -79.3686 C.3       3 UNK        -0.1996 
     59 N         -80.8835   25.1591  -77.1619 N.am      3 UNK        -0.4254 
     60 C         -81.5338   23.9949  -77.0106 C.2       2 UNK         0.5004 
     61 O         -81.1299   22.9222  -77.4612 O.2       2 UNK        -0.5226 
     62 CA        -82.8343   24.0387  -76.1819 C.3       2 UNK         0.0269 
     63 CB        -83.1891   22.6695  -75.5623 C.3       2 UNK        -0.1926 
     64 N         -82.8374   25.0879  -75.1502 N.am      2 UNK        -0.4687 
     65 C         -81.9748   25.2222  -74.1306 C.2       1 UNK         0.5165 
     66 O         -81.0387   24.4499  -73.9088 O.2       1 UNK        -0.5079 
     67 H67       -85.2464   24.1753  -70.8073 H         1 UNK         0.0900 
     68 H68       -85.5627   25.8220  -70.2541 H         1 UNK         0.0900 
     69 H69       -84.0215   25.0470  -69.8830 H         1 UNK         0.0900 
     70 H70       -82.3510   25.7549  -71.1943 H         1 UNK         0.2959 
     71 H71       -82.8474   27.1470  -73.7042 H         1 UNK         0.1079 
     72 H72       -80.1379   26.4369  -72.4710 H         1 UNK         0.0837 
     73 H73       -81.0974   27.8005  -71.9642 H         1 UNK         0.0837 
     74 H74       -79.7810   30.5135  -74.0601 H         1 UNK         0.0685 
     75 H75       -80.5222   29.9722  -72.5797 H         1 UNK         0.0685 
     76 H76       -78.9475   28.0803  -71.2859 H         1 UNK         0.1434 
     77 H77       -74.8936   29.3846  -70.9967 H         1 UNK         0.1329 
     78 H78       -77.5408   31.2323  -73.8269 H         1 UNK         0.1335 
     79 H79       -75.2542   32.3947  -72.4669 H         1 UNK         0.0680 
     80 H80       -74.0589   31.1260  -72.3385 H         1 UNK         0.0680 
     81 H81       -72.9021   32.8579  -73.7371 H         1 UNK         0.1032 
     82 H82       -73.2159   33.1887  -75.4173 H         1 UNK         0.1032 
     83 H83       -72.1648   31.0435  -76.0887 H         1 UNK         0.0461 
     84 H84       -69.5995   31.3950  -73.8040 H         1 UNK         0.3453 
     85 H85       -68.7329   32.6323  -74.6804 H         1 UNK         0.3453 
     86 H86       -72.2650   30.3832  -73.3116 H         1 UNK         0.2984 
     87 H87       -70.0994   27.9611  -73.0426 H         1 UNK         0.0554 
     88 H88       -71.9678   27.6111  -71.4159 H         1 UNK         0.0847 
     89 H89       -73.0330   28.5959  -72.4042 H         1 UNK         0.0847 
     90 H90       -71.6158   29.3126  -71.6292 H         1 UNK         0.0847 
     91 H91       -72.6311   26.7424  -74.0277 H         1 UNK         0.3141 
     92 H92       -70.8553   24.0151  -75.5403 H         1 UNK         0.0743 
     93 H93       -72.9168   24.2470  -73.2845 H         1 UNK         0.0784 
     94 H94       -72.6465   22.8263  -74.2924 H         1 UNK         0.0784 
     95 H95       -71.3900   23.3817  -73.1973 H         1 UNK         0.0784 
     96 H96       -73.6054   24.8079  -75.6389 H         1 UNK         0.3213 
     97 H97       -73.3592   26.6537  -78.6990 H         1 UNK         0.0855 
     98 H98       -73.4499   24.2442  -79.3596 H         1 UNK         0.0814 
     99 H99       -75.0512   24.9680  -79.3729 H         1 UNK         0.0814 
    100 H100      -74.5725   23.9124  -78.0465 H         1 UNK         0.0814 
    101 H101      -75.5788   25.9370  -77.0269 H         1 UNK         0.3105 
    102 H102      -75.4499   28.8131  -74.9278 H         1 UNK         0.0547 
    103 H103      -76.6635   29.5696  -76.9705 H         1 UNK         0.0837 
    104 H104      -77.4524   28.0044  -77.1026 H         1 UNK         0.0837 
    105 H105      -77.7798   29.0529  -75.7215 H         1 UNK         0.0837 
    106 H106      -77.2392   26.6033  -75.0120 H         1 UNK         0.3020 
    107 H107      -75.3248   24.4638  -72.8991 H         1 UNK         0.1245 
    108 H108      -77.4341   24.5604  -71.5146 H         1 UNK         0.0781 
    109 H109      -77.7318   26.1603  -72.1199 H         1 UNK         0.0781 
    110 H110      -76.0481   27.9964  -69.1732 H         1 UNK         0.0836 
    111 H111      -77.5992   27.2742  -69.4995 H         1 UNK         0.0836 
    112 H112      -77.9733   24.2808  -74.0017 H         1 UNK         0.3022 
    113 H113      -76.8249   22.4637  -76.9053 H         1 UNK         0.0747 
    114 H114      -78.5763   20.9772  -76.0191 H         1 UNK         0.0793 
    115 H115      -77.2021   20.9593  -74.9263 H         1 UNK         0.0793 
    116 H116      -78.6427   21.8787  -74.5066 H         1 UNK         0.0793 
    117 H117      -79.4268   23.2467  -76.5398 H         1 UNK         0.3047 
    118 H118      -79.4677   26.5161  -77.7570 H         1 UNK         0.0822 
    119 H119      -80.5819   25.6775  -79.8138 H         1 UNK         0.0807 
    120 H120      -79.8875   24.0762  -79.5615 H         1 UNK         0.0807 
    121 H121      -78.8435   25.4463  -79.9017 H         1 UNK         0.0807 
    122 H122      -81.2989   25.9614  -76.7089 H         1 UNK         0.2946 
    123 H123      -83.6264   24.2952  -76.8876 H         1 UNK         0.1144 
    124 H124      -83.3309   21.9136  -76.3358 H         1 UNK         0.0793 
    125 H125      -84.1151   22.7215  -74.9897 H         1 UNK         0.0793 
    126 H126      -82.4033   22.3094  -74.8974 H         1 UNK         0.0793 
    127 H127      -83.5962   25.7545  -75.2133 H         1 UNK         0.2896 
@<TRIPOS>BOND
     1    1    2 1    
     2    1   67 1    
     3    1   68 1    
     4    1   69 1    
     5    2    3 2    
     6    2    4 am   BACKBONE|DICT|INTERRES
     7    4    5 1    
     8    4   70 1    
     9    5    6 1    
    10    5   65 1    
    11    5   71 1    
    12    6    7 1    
    13    6   72 1    
    14    6   73 1    
    15    7    8 1    
    16    8    9 1    
    17    8   74 1    
    18    8   75 1    
    19    9   10 ar   
    20    9   14 ar   
    21   10   11 ar   
    22   10   76 1    
    23   11   12 ar   
    24   11   48 1    
    25   12   13 ar   
    26   12   77 1    
    27   13   14 ar   
    28   13   15 1    
    29   14   78 1    
    30   15   16 1    
    31   15   79 1    
    32   15   80 1    
    33   16   17 1    
    34   17   18 1    
    35   17   81 1    
    36   17   82 1    
    37   18   19 1    
    38   18   22 1    
    39   18   83 1    
    40   19   20 am   BACKBONE|DICT|INTERRES
    41   19   21 2    
    42   20   84 1    
    43   20   85 1    
    44   22   23 am   BACKBONE|DICT|INTERRES
    45   22   86 1    
    46   23   24 2    
    47   23   25 1    
    48   25   26 1    
    49   25   27 1    
    50   25   87 1    
    51   26   88 1    
    52   26   89 1    
    53   26   90 1    
    54   27   28 am   BACKBONE|DICT|INTERRES
    55   27   91 1    
    56   28   29 2    
    57   28   30 1    
    58   30   31 1    
    59   30   32 1    
    60   30   92 1    
    61   31   93 1    
    62   31   94 1    
    63   31   95 1    
    64   32   33 am   BACKBONE|DICT|INTERRES
    65   32   96 1    
    66   33   34 2    
    67   33   35 1    
    68   35   36 1    
    69   35   37 1    
    70   35   97 1    
    71   36   98 1    
    72   36   99 1    
    73   36  100 1    
    74   37   38 am   BACKBONE|DICT|INTERRES
    75   37  101 1    
    76   38   39 2    
    77   38   40 1    
    78   40   41 1    
    79   40   42 1    
    80   40  102 1    
    81   41  103 1    
    82   41  104 1    
    83   41  105 1    
    84   42   43 am   BACKBONE|DICT|INTERRES
    85   42  106 1    
    86   43   44 2    
    87   43   45 1    
    88   45   46 1    
    89   45   49 1    
    90   45  107 1    
    91   46   47 1    
    92   46  108 1    
    93   46  109 1    
    94   47   48 1    
    95   48  110 1    
    96   48  111 1    
    97   49   50 am   BACKBONE|DICT|INTERRES
    98   49  112 1    
    99   50   51 2    
   100   50   52 1    
   101   52   53 1    
   102   52   54 1    
   103   52  113 1    
   104   53  114 1    
   105   53  115 1    
   106   53  116 1    
   107   54   55 am   BACKBONE|DICT|INTERRES
   108   54  117 1    
   109   55   56 2    
   110   55   57 1    
   111   57   58 1    
   112   57   59 1    
   113   57  118 1    
   114   58  119 1    
   115   58  120 1    
   116   58  121 1    
   117   59   60 am   BACKBONE|DICT|INTERRES
   118   59  122 1    
   119   60   61 2    
   120   60   62 1    
   121   62   63 1    
   122   62   64 1    
   123   62  123 1    
   124   63  124 1    
   125   63  125 1    
   126   63  126 1    
   127   64   65 am   BACKBONE|DICT|INTERRES
   128   64  127 1    
   129   65   66 2    
@<TRIPOS>SUBSTRUCTURE
     1 UNK         1 GROUP             0       ****    0 ROOT    
