@<TRIPOS>MOLECULE
3R135
127   129    1
SMALL
USER_CHARGES


@<TRIPOS>ATOM
      1 CA        -83.8959   27.7781  -71.2326 C.3       0 UNK        -0.1998 
      2 C         -84.3532   28.6512  -72.3990 C.2       0 UNK         0.4909 
      3 O         -85.4533   29.1975  -72.3318 O.2       0 UNK        -0.5240 
      4 N         -83.5766   28.8385  -73.4780 N.am      1 UNK        -0.4739 
      5 CA        -82.2579   28.2708  -73.8157 C.3       1 UNK         0.0864 
      6 C6        -81.1384   28.5460  -72.7692 C.3       11 UNK        -0.0881 
      7 S7        -81.0236   30.3050  -72.2855 S.3       11 UNK        -0.2682 
      8 C8        -80.4137   30.1799  -70.5733 C.3       11 UNK         0.0289 
      9 C9        -78.9608   29.7331  -70.5417 C.ar      11 UNK        -0.0687 
     10 C10       -78.6433   28.3758  -70.4445 C.ar      11 UNK        -0.0823 
     11 C11       -77.3122   27.9531  -70.4996 C.ar      11 UNK        -0.0830 
     12 C12       -76.2918   28.9026  -70.5958 C.ar      11 UNK        -0.1021 
     13 C13       -76.5969   30.2637  -70.6791 C.ar      11 UNK        -0.0753 
     14 C14       -77.9327   30.6744  -70.6489 C.ar      11 UNK        -0.0933 
     15 C15       -75.4834   31.2886  -70.8230 C.3       11 UNK         0.0166 
     16 S16       -75.3262   31.8942  -72.5344 S.3       11 UNK        -0.2615 
     17 C17       -74.7759   30.4098  -73.4472 C.3       11 UNK        -0.0865 
     18 CA        -73.2320   30.3322  -73.5744 C.3       10 UNK         0.0862 
     19 C         -72.5800   29.6252  -72.3590 C.2       10 UNK         0.5551 
     20 N         -71.8184   30.3475  -71.5490 N.am      10 UNK        -0.7319 
     21 O         -72.7912   28.4367  -72.1272 O.2       10 UNK        -0.5018 
     22 N         -72.8413   29.6584  -74.8156 N.am      10 UNK        -0.4509 
     23 C         -71.7304   29.9380  -75.5080 C.2       10 UNK         0.4899 
     24 O         -70.9468   30.8429  -75.2141 O.2       10 UNK        -0.4839 
     25 CA        -71.4632   29.0566  -76.7408 C.3       9 UNK         0.0222 
     26 CB        -70.1148   29.3570  -77.4300 C.3       9 UNK        -0.1966 
     27 N         -71.5961   27.6286  -76.4399 N.am      9 UNK        -0.4218 
     28 C         -70.8699   26.8987  -75.5776 C.2       9 UNK         0.5020 
     29 O         -69.9257   27.3460  -74.9248 O.2       9 UNK        -0.5274 
     30 CA        -71.2523   25.4152  -75.3956 C.3       8 UNK         0.0270 
     31 CB        -71.8087   25.1794  -73.9811 C.3       8 UNK        -0.1976 
     32 N         -72.2219   24.9229  -76.3795 N.am      8 UNK        -0.4313 
     33 C         -71.9615   24.7037  -77.6759 C.2       8 UNK         0.5041 
     34 O         -70.8403   24.8040  -78.1751 O.2       8 UNK        -0.5577 
     35 CA        -73.1614   24.3638  -78.5777 C.3       7 UNK         0.0284 
     36 CB        -73.4468   22.8539  -78.5544 C.3       7 UNK        -0.1958 
     37 N         -74.3781   25.1067  -78.2267 N.am      7 UNK        -0.4454 
     38 C         -74.5077   26.4408  -78.2922 C.2       7 UNK         0.5089 
     39 O         -73.6175   27.1940  -78.6842 O.2       7 UNK        -0.5125 
     40 CA        -75.8258   27.0460  -77.7787 C.3       6 UNK         0.0408 
     41 CB        -76.9524   26.8846  -78.8107 C.3       6 UNK        -0.1791 
     42 N         -76.2341   26.4702  -76.4967 N.am      6 UNK        -0.4762 
     43 C         -75.5555   26.6154  -75.3481 C.2       6 UNK         0.5007 
     44 O         -74.5627   27.3349  -75.2267 O.2       6 UNK        -0.5032 
     45 CA        -76.0467   25.7838  -74.1475 C.3       5 UNK         0.0783 
     46 C46       -77.1444   26.5421  -73.3681 C.3       11 UNK        -0.0857 
     47 S47       -77.7590   25.6065  -71.9220 S.3       11 UNK        -0.2512 
     48 C48       -76.9765   26.4688  -70.5172 C.3       11 UNK         0.0225 
     49 N         -76.4882   24.4520  -74.5711 N.am      5 UNK        -0.4615 
     50 C         -75.6766   23.4843  -75.0137 C.2       4 UNK         0.5053 
     51 O         -74.4564   23.6051  -75.1056 O.2       4 UNK        -0.5105 
     52 CA        -76.3464   22.1775  -75.4691 C.3       4 UNK         0.0263 
     53 CB        -76.6330   21.2691  -74.2631 C.3       4 UNK        -0.1981 
     54 N         -77.5859   22.4127  -76.2142 N.am      4 UNK        -0.4224 
     55 C         -77.6478   23.0333  -77.4013 C.2       3 UNK         0.4895 
     56 O         -76.6593   23.4182  -78.0235 O.2       3 UNK        -0.5091 
     57 CA        -79.0476   23.3167  -77.9704 C.3       3 UNK         0.0250 
     58 CB        -79.5342   22.1315  -78.8189 C.3       3 UNK        -0.1996 
     59 N         -80.0457   23.6309  -76.9423 N.am      3 UNK        -0.4254 
     60 C         -79.9861   24.6850  -76.1170 C.2       2 UNK         0.5004 
     61 O         -79.0648   25.5069  -76.1107 O.2       2 UNK        -0.5226 
     62 CA        -81.1224   24.8112  -75.0988 C.3       2 UNK         0.0269 
     63 CB        -80.8751   23.8936  -73.8868 C.3       2 UNK        -0.1926 
     64 N         -81.2237   26.2008  -74.6566 N.am      2 UNK        -0.4687 
     65 C         -82.3469   26.7781  -74.2143 C.2       1 UNK         0.5165 
     66 O         -83.4195   26.1732  -74.1313 O.2       1 UNK        -0.5079 
     67 H67       -83.3754   26.8809  -71.5598 H         1 UNK         0.0900 
     68 H68       -84.7563   27.4528  -70.6482 H         1 UNK         0.0900 
     69 H69       -83.2432   28.3458  -70.5708 H         1 UNK         0.0900 
     70 H70       -83.9573   29.4211  -74.2101 H         1 UNK         0.2959 
     71 H71       -81.9657   28.7883  -74.7311 H         1 UNK         0.1079 
     72 H72       -81.2747   27.9302  -71.8814 H         1 UNK         0.0837 
     73 H73       -80.1631   28.2638  -73.1697 H         1 UNK         0.0837 
     74 H74       -80.5103   31.1547  -70.0928 H         1 UNK         0.0685 
     75 H75       -81.0417   29.4953  -70.0014 H         1 UNK         0.0685 
     76 H76       -79.4323   27.6400  -70.3749 H         1 UNK         0.1434 
     77 H77       -75.2595   28.5817  -70.6412 H         1 UNK         0.1329 
     78 H78       -78.1723   31.7256  -70.7352 H         1 UNK         0.1335 
     79 H79       -74.5308   30.8763  -70.4887 H         1 UNK         0.0680 
     80 H80       -75.6898   32.1376  -70.1697 H         1 UNK         0.0680 
     81 H81       -75.2226   30.4898  -74.4397 H         1 UNK         0.1032 
     82 H82       -75.1984   29.4983  -73.0244 H         1 UNK         0.1032 
     83 H83       -72.8551   31.3563  -73.6239 H         1 UNK         0.0461 
     84 H84       -71.6435   31.3230  -71.7337 H         1 UNK         0.3453 
     85 H85       -71.3951   29.9044  -70.7490 H         1 UNK         0.3453 
     86 H86       -73.3949   28.8436  -75.0703 H         1 UNK         0.2984 
     87 H87       -72.2530   29.2897  -77.4561 H         1 UNK         0.0554 
     88 H88       -69.9719   28.7298  -78.3099 H         1 UNK         0.0847 
     89 H89       -69.2693   29.1943  -76.7609 H         1 UNK         0.0847 
     90 H90       -70.0698   30.3950  -77.7616 H         1 UNK         0.0847 
     91 H91       -72.3518   27.1633  -76.9285 H         1 UNK         0.3141 
     92 H92       -70.3366   24.8304  -75.5032 H         1 UNK         0.0743 
     93 H93       -72.7190   25.7539  -73.8075 H         1 UNK         0.0784 
     94 H94       -72.0358   24.1268  -73.8116 H         1 UNK         0.0784 
     95 H95       -71.0874   25.4812  -73.2204 H         1 UNK         0.0784 
     96 H96       -73.1546   24.7149  -76.0314 H         1 UNK         0.3213 
     97 H97       -72.8920   24.6421  -79.5988 H         1 UNK         0.0855 
     98 H98       -73.7458   22.5146  -77.5625 H         1 UNK         0.0814 
     99 H99       -72.5616   22.2847  -78.8413 H         1 UNK         0.0814 
    100 H100      -74.2419   22.5898  -79.2518 H         1 UNK         0.0814 
    101 H101      -75.1863   24.5518  -77.9509 H         1 UNK         0.3105 
    102 H102      -75.6645   28.1149  -77.6237 H         1 UNK         0.0547 
    103 H103      -76.6921   27.3774  -79.7483 H         1 UNK         0.0837 
    104 H104      -77.1497   25.8380  -79.0396 H         1 UNK         0.0837 
    105 H105      -77.8821   27.3302  -78.4565 H         1 UNK         0.0837 
    106 H106      -77.0783   25.9060  -76.4895 H         1 UNK         0.3020 
    107 H107      -75.1916   25.6532  -73.4803 H         1 UNK         0.1245 
    108 H108      -78.0001   26.7487  -74.0122 H         1 UNK         0.0781 
    109 H109      -76.7730   27.5176  -73.0542 H         1 UNK         0.0781 
    110 H110      -75.8978   26.3113  -70.5651 H         1 UNK         0.0836 
    111 H111      -77.3149   26.0133  -69.5857 H         1 UNK         0.0836 
    112 H112      -77.4838   24.2902  -74.5549 H         1 UNK         0.3022 
    113 H113      -75.6491   21.6590  -76.1305 H         1 UNK         0.0747 
    114 H114      -77.0375   20.3070  -74.5781 H         1 UNK         0.0793 
    115 H115      -75.7187   21.0664  -73.7034 H         1 UNK         0.0793 
    116 H116      -77.3440   21.7233  -73.5716 H         1 UNK         0.0793 
    117 H117      -78.4481   22.1200  -75.7789 H         1 UNK         0.3047 
    118 H118      -78.9630   24.1888  -78.6220 H         1 UNK         0.0822 
    119 H119      -80.4818   22.3562  -79.3089 H         1 UNK         0.0807 
    120 H120      -79.6706   21.2310  -78.2187 H         1 UNK         0.0807 
    121 H121      -78.8150   21.8936  -79.6043 H         1 UNK         0.0807 
    122 H122      -80.8332   23.0017  -76.8735 H         1 UNK         0.2946 
    123 H123      -82.0523   24.5204  -75.5937 H         1 UNK         0.1144 
    124 H124      -79.9496   24.1493  -73.3708 H         1 UNK         0.0793 
    125 H125      -80.8039   22.8481  -74.1889 H         1 UNK         0.0793 
    126 H126      -81.6881   23.9631  -73.1639 H         1 UNK         0.0793 
    127 H127      -80.3765   26.7403  -74.7821 H         1 UNK         0.2896 
@<TRIPOS>BOND
     1    1    2 1    
     2    1   67 1    
     3    1   68 1    
     4    1   69 1    
     5    2    3 2    
     6    2    4 am   BACKBONE|DICT|INTERRES
     7    4    5 1    
     8    4   70 1    
     9    5    6 1    
    10    5   65 1    
    11    5   71 1    
    12    6    7 1    
    13    6   72 1    
    14    6   73 1    
    15    7    8 1    
    16    8    9 1    
    17    8   74 1    
    18    8   75 1    
    19    9   10 ar   
    20    9   14 ar   
    21   10   11 ar   
    22   10   76 1    
    23   11   12 ar   
    24   11   48 1    
    25   12   13 ar   
    26   12   77 1    
    27   13   14 ar   
    28   13   15 1    
    29   14   78 1    
    30   15   16 1    
    31   15   79 1    
    32   15   80 1    
    33   16   17 1    
    34   17   18 1    
    35   17   81 1    
    36   17   82 1    
    37   18   19 1    
    38   18   22 1    
    39   18   83 1    
    40   19   20 am   BACKBONE|DICT|INTERRES
    41   19   21 2    
    42   20   84 1    
    43   20   85 1    
    44   22   23 am   BACKBONE|DICT|INTERRES
    45   22   86 1    
    46   23   24 2    
    47   23   25 1    
    48   25   26 1    
    49   25   27 1    
    50   25   87 1    
    51   26   88 1    
    52   26   89 1    
    53   26   90 1    
    54   27   28 am   BACKBONE|DICT|INTERRES
    55   27   91 1    
    56   28   29 2    
    57   28   30 1    
    58   30   31 1    
    59   30   32 1    
    60   30   92 1    
    61   31   93 1    
    62   31   94 1    
    63   31   95 1    
    64   32   33 am   BACKBONE|DICT|INTERRES
    65   32   96 1    
    66   33   34 2    
    67   33   35 1    
    68   35   36 1    
    69   35   37 1    
    70   35   97 1    
    71   36   98 1    
    72   36   99 1    
    73   36  100 1    
    74   37   38 am   BACKBONE|DICT|INTERRES
    75   37  101 1    
    76   38   39 2    
    77   38   40 1    
    78   40   41 1    
    79   40   42 1    
    80   40  102 1    
    81   41  103 1    
    82   41  104 1    
    83   41  105 1    
    84   42   43 am   BACKBONE|DICT|INTERRES
    85   42  106 1    
    86   43   44 2    
    87   43   45 1    
    88   45   46 1    
    89   45   49 1    
    90   45  107 1    
    91   46   47 1    
    92   46  108 1    
    93   46  109 1    
    94   47   48 1    
    95   48  110 1    
    96   48  111 1    
    97   49   50 am   BACKBONE|DICT|INTERRES
    98   49  112 1    
    99   50   51 2    
   100   50   52 1    
   101   52   53 1    
   102   52   54 1    
   103   52  113 1    
   104   53  114 1    
   105   53  115 1    
   106   53  116 1    
   107   54   55 am   BACKBONE|DICT|INTERRES
   108   54  117 1    
   109   55   56 2    
   110   55   57 1    
   111   57   58 1    
   112   57   59 1    
   113   57  118 1    
   114   58  119 1    
   115   58  120 1    
   116   58  121 1    
   117   59   60 am   BACKBONE|DICT|INTERRES
   118   59  122 1    
   119   60   61 2    
   120   60   62 1    
   121   62   63 1    
   122   62   64 1    
   123   62  123 1    
   124   63  124 1    
   125   63  125 1    
   126   63  126 1    
   127   64   65 am   BACKBONE|DICT|INTERRES
   128   64  127 1    
   129   65   66 2    
@<TRIPOS>SUBSTRUCTURE
     1 UNK         1 GROUP             0       ****    0 ROOT    
