@<TRIPOS>MOLECULE
3R135
127   129    1
SMALL
USER_CHARGES


@<TRIPOS>ATOM
      1 CA        -85.2012   27.9030  -71.0227 C.3       0 UNK        -0.1998 
      2 C         -84.9342   27.6704  -72.5020 C.2       0 UNK         0.4909 
      3 O         -85.6230   26.8659  -73.1300 O.2       0 UNK        -0.5240 
      4 N         -83.9404   28.3712  -73.0635 N.am      1 UNK        -0.4739 
      5 CA        -83.5093   28.2579  -74.4636 C.3       1 UNK         0.0864 
      6 C6        -82.6477   29.4694  -74.9086 C.3       11 UNK        -0.0881 
      7 S7        -81.3073   29.9048  -73.7450 S.3       11 UNK        -0.2682 
      8 C8        -79.8825   29.1517  -74.5794 C.3       11 UNK         0.0289 
      9 C9        -78.6767   29.0779  -73.6587 C.ar      11 UNK        -0.0687 
     10 C10       -78.6606   28.1524  -72.6132 C.ar      11 UNK        -0.0823 
     11 C11       -77.5463   28.0468  -71.7786 C.ar      11 UNK        -0.0830 
     12 C12       -76.4454   28.8766  -71.9959 C.ar      11 UNK        -0.1021 
     13 C13       -76.4309   29.7888  -73.0569 C.ar      11 UNK        -0.0753 
     14 C14       -77.5631   29.8954  -73.8729 C.ar      11 UNK        -0.0933 
     15 C15       -75.1871   30.6060  -73.4022 C.3       11 UNK         0.0166 
     16 S16       -74.2333   31.2151  -71.9691 S.3       11 UNK        -0.2615 
     17 C17       -73.0774   29.8401  -71.6183 C.3       11 UNK        -0.0865 
     18 CA        -71.7096   30.0237  -72.3263 C.3       10 UNK         0.0862 
     19 C         -70.5783   29.2034  -71.6349 C.2       10 UNK         0.5551 
     20 N         -69.8032   28.3858  -72.3385 N.am      10 UNK        -0.7319 
     21 O         -70.3877   29.3231  -70.4271 O.2       10 UNK        -0.5018 
     22 N         -71.8418   29.7536  -73.7641 N.am      10 UNK        -0.4509 
     23 C         -71.1341   30.3382  -74.7351 C.2       10 UNK         0.4899 
     24 O         -70.3274   31.2503  -74.5471 O.2       10 UNK        -0.4839 
     25 CA        -71.3712   29.7852  -76.1547 C.3       9 UNK         0.0222 
     26 CB        -70.2695   30.2009  -77.1521 C.3       9 UNK        -0.1966 
     27 N         -71.5713   28.3282  -76.1824 N.am      9 UNK        -0.4218 
     28 C         -70.7157   27.3844  -75.7503 C.2       9 UNK         0.5020 
     29 O         -69.6370   27.6429  -75.2147 O.2       9 UNK        -0.5274 
     30 CA        -71.1182   25.9025  -75.9015 C.3       8 UNK         0.0270 
     31 CB        -71.3351   25.2592  -74.5209 C.3       8 UNK        -0.1976 
     32 N         -72.3125   25.6846  -76.7191 N.am      8 UNK        -0.4313 
     33 C         -72.3929   25.8813  -78.0417 C.2       8 UNK         0.5041 
     34 O         -71.4318   26.1818  -78.7502 O.2       8 UNK        -0.5577 
     35 CA        -73.7906   25.7701  -78.6747 C.3       7 UNK         0.0284 
     36 CB        -74.0144   24.3605  -79.2442 C.3       7 UNK        -0.1958 
     37 N         -74.8814   26.1139  -77.7530 N.am      7 UNK        -0.4454 
     38 C         -75.0813   27.3281  -77.2181 C.2       7 UNK         0.5089 
     39 O         -74.3366   28.2906  -77.4048 O.2       7 UNK        -0.5125 
     40 CA        -76.3074   27.4833  -76.3032 C.3       6 UNK         0.0408 
     41 CB        -77.5882   27.5814  -77.1465 C.3       6 UNK        -0.1791 
     42 N         -76.4418   26.3916  -75.3360 N.am      6 UNK        -0.4762 
     43 C         -75.5653   26.1265  -74.3529 C.2       6 UNK         0.5007 
     44 O         -74.5724   26.8167  -74.1155 O.2       6 UNK        -0.5032 
     45 CA        -75.7883   24.8100  -73.5737 C.3       5 UNK         0.0783 
     46 C46       -76.8638   24.9366  -72.4653 C.3       11 UNK        -0.0857 
     47 S47       -76.2420   25.7404  -70.9521 S.3       11 UNK        -0.2512 
     48 C48       -77.5106   27.0172  -70.6596 C.3       11 UNK         0.0225 
     49 N         -76.1231   23.7067  -74.4765 N.am      5 UNK        -0.4615 
     50 C         -75.3790   23.2455  -75.4869 C.2       4 UNK         0.5053 
     51 O         -74.2451   23.6507  -75.7383 O.2       4 UNK        -0.5105 
     52 CA        -76.0358   22.2091  -76.4186 C.3       4 UNK         0.0263 
     53 CB        -75.9196   20.7841  -75.8432 C.3       4 UNK        -0.1981 
     54 N         -77.4206   22.5477  -76.7963 N.am      4 UNK        -0.4224 
     55 C         -78.5116   22.5809  -76.0167 C.2       3 UNK         0.4895 
     56 O         -78.5199   22.2425  -74.8300 O.2       3 UNK        -0.5091 
     57 CA        -79.8008   23.1035  -76.6728 C.3       3 UNK         0.0250 
     58 CB        -80.4837   21.9889  -77.4824 C.3       3 UNK        -0.1996 
     59 N         -80.7441   23.6126  -75.6749 N.am      3 UNK        -0.4254 
     60 C         -80.5674   24.7177  -74.9373 C.2       2 UNK         0.5004 
     61 O         -79.6183   25.4955  -75.0693 O.2       2 UNK        -0.5226 
     62 CA        -81.6060   24.9495  -73.8240 C.3       2 UNK         0.0269 
     63 CB        -80.9995   24.6125  -72.4514 C.3       2 UNK        -0.1926 
     64 N         -82.1609   26.3062  -73.7876 N.am      2 UNK        -0.4687 
     65 C         -82.8389   26.9011  -74.7819 C.2       1 UNK         0.5165 
     66 O         -82.9958   26.4033  -75.8979 O.2       1 UNK        -0.5079 
     67 H67       -85.0811   26.9722  -70.4691 H         1 UNK         0.0900 
     68 H68       -84.5218   28.6411  -70.5967 H         1 UNK         0.0900 
     69 H69       -86.2213   28.2574  -70.8768 H         1 UNK         0.0900 
     70 H70       -83.4073   29.0242  -72.5052 H         1 UNK         0.2959 
     71 H71       -84.4166   28.2794  -75.0722 H         1 UNK         0.1079 
     72 H72       -83.2918   30.3463  -74.9901 H         1 UNK         0.0837 
     73 H73       -82.2437   29.3195  -75.9121 H         1 UNK         0.0837 
     74 H74       -80.1410   28.1436  -74.9030 H         1 UNK         0.0685 
     75 H75       -79.6524   29.7201  -75.4818 H         1 UNK         0.0685 
     76 H76       -79.5162   27.5101  -72.4623 H         1 UNK         0.1434 
     77 H77       -75.5909   28.7714  -71.3475 H         1 UNK         0.1329 
     78 H78       -77.5644   30.5905  -74.7013 H         1 UNK         0.1335 
     79 H79       -74.5476   30.0066  -74.0499 H         1 UNK         0.0680 
     80 H80       -75.4765   31.4792  -73.9889 H         1 UNK         0.0680 
     81 H81       -72.9579   29.8103  -70.5336 H         1 UNK         0.1032 
     82 H82       -73.5113   28.8792  -71.8973 H         1 UNK         0.1032 
     83 H83       -71.4119   31.0664  -72.2000 H         1 UNK         0.0461 
     84 H84       -69.9005   28.2929  -73.3434 H         1 UNK         0.3453 
     85 H85       -69.0766   27.8761  -71.8622 H         1 UNK         0.3453 
     86 H86       -72.4569   28.9931  -74.0150 H         1 UNK         0.2984 
     87 H87       -72.3089   30.2248  -76.4977 H         1 UNK         0.0554 
     88 H88       -70.2044   31.2865  -77.2345 H         1 UNK         0.0847 
     89 H89       -70.4722   29.8131  -78.1504 H         1 UNK         0.0847 
     90 H90       -69.2878   29.8389  -76.8446 H         1 UNK         0.0847 
     91 H91       -72.4520   28.0275  -76.5885 H         1 UNK         0.3141 
     92 H92       -70.2838   25.3925  -76.3873 H         1 UNK         0.0743 
     93 H93       -70.4360   25.3342  -73.9077 H         1 UNK         0.0784 
     94 H94       -72.1428   25.7435  -73.9719 H         1 UNK         0.0784 
     95 H95       -71.5783   24.2001  -74.6094 H         1 UNK         0.0784 
     96 H96       -73.1399   25.3482  -76.2367 H         1 UNK         0.3213 
     97 H97       -73.8292   26.4810  -79.5030 H         1 UNK         0.0855 
     98 H98       -73.9182   23.5947  -78.4751 H         1 UNK         0.0814 
     99 H99       -73.2753   24.1348  -80.0142 H         1 UNK         0.0814 
    100 H100      -74.9981   24.2629  -79.7036 H         1 UNK         0.0814 
    101 H101      -75.5242   25.3760  -77.5106 H         1 UNK         0.3105 
    102 H102      -76.1875   28.4124  -75.7453 H         1 UNK         0.0547 
    103 H103      -78.4681   27.7066  -76.5194 H         1 UNK         0.0837 
    104 H104      -77.5459   28.4367  -77.8221 H         1 UNK         0.0837 
    105 H105      -77.7463   26.6906  -77.7554 H         1 UNK         0.0837 
    106 H106      -77.2642   25.8073  -75.4185 H         1 UNK         0.3020 
    107 H107      -74.8352   24.5488  -73.1082 H         1 UNK         0.1245 
    108 H108      -77.2024   23.9448  -72.1603 H         1 UNK         0.0781 
    109 H109      -77.7550   25.4409  -72.8416 H         1 UNK         0.0781 
    110 H110      -77.2949   27.5217  -69.7167 H         1 UNK         0.0836 
    111 H111      -78.4824   26.5369  -70.5352 H         1 UNK         0.0836 
    112 H112      -77.0433   23.2885  -74.3637 H         1 UNK         0.3022 
    113 H113      -75.4691   22.2216  -77.3501 H         1 UNK         0.0747 
    114 H114      -76.3507   20.0471  -76.5205 H         1 UNK         0.0793 
    115 H115      -74.8737   20.5132  -75.6925 H         1 UNK         0.0793 
    116 H116      -76.4181   20.6851  -74.8787 H         1 UNK         0.0793 
    117 H117      -77.5333   22.8383  -77.7581 H         1 UNK         0.3047 
    118 H118      -79.5427   23.9254  -77.3443 H         1 UNK         0.0822 
    119 H119      -79.8251   21.6088  -78.2644 H         1 UNK         0.0807 
    120 H120      -81.3876   22.3513  -77.9728 H         1 UNK         0.0807 
    121 H121      -80.7602   21.1430  -76.8513 H         1 UNK         0.0807 
    122 H122      -81.5312   23.0155  -75.4681 H         1 UNK         0.2946 
    123 H123      -82.4476   24.2742  -73.9934 H         1 UNK         0.1144 
    124 H124      -81.7439   24.6810  -71.6579 H         1 UNK         0.0793 
    125 H125      -80.1746   25.2777  -72.1985 H         1 UNK         0.0793 
    126 H126      -80.6069   23.5945  -72.4387 H         1 UNK         0.0793 
    127 H127      -82.0865   26.8035  -72.9129 H         1 UNK         0.2896 
@<TRIPOS>BOND
     1    1    2 1    
     2    1   67 1    
     3    1   68 1    
     4    1   69 1    
     5    2    3 2    
     6    2    4 am   BACKBONE|DICT|INTERRES
     7    4    5 1    
     8    4   70 1    
     9    5    6 1    
    10    5   65 1    
    11    5   71 1    
    12    6    7 1    
    13    6   72 1    
    14    6   73 1    
    15    7    8 1    
    16    8    9 1    
    17    8   74 1    
    18    8   75 1    
    19    9   10 ar   
    20    9   14 ar   
    21   10   11 ar   
    22   10   76 1    
    23   11   12 ar   
    24   11   48 1    
    25   12   13 ar   
    26   12   77 1    
    27   13   14 ar   
    28   13   15 1    
    29   14   78 1    
    30   15   16 1    
    31   15   79 1    
    32   15   80 1    
    33   16   17 1    
    34   17   18 1    
    35   17   81 1    
    36   17   82 1    
    37   18   19 1    
    38   18   22 1    
    39   18   83 1    
    40   19   20 am   BACKBONE|DICT|INTERRES
    41   19   21 2    
    42   20   84 1    
    43   20   85 1    
    44   22   23 am   BACKBONE|DICT|INTERRES
    45   22   86 1    
    46   23   24 2    
    47   23   25 1    
    48   25   26 1    
    49   25   27 1    
    50   25   87 1    
    51   26   88 1    
    52   26   89 1    
    53   26   90 1    
    54   27   28 am   BACKBONE|DICT|INTERRES
    55   27   91 1    
    56   28   29 2    
    57   28   30 1    
    58   30   31 1    
    59   30   32 1    
    60   30   92 1    
    61   31   93 1    
    62   31   94 1    
    63   31   95 1    
    64   32   33 am   BACKBONE|DICT|INTERRES
    65   32   96 1    
    66   33   34 2    
    67   33   35 1    
    68   35   36 1    
    69   35   37 1    
    70   35   97 1    
    71   36   98 1    
    72   36   99 1    
    73   36  100 1    
    74   37   38 am   BACKBONE|DICT|INTERRES
    75   37  101 1    
    76   38   39 2    
    77   38   40 1    
    78   40   41 1    
    79   40   42 1    
    80   40  102 1    
    81   41  103 1    
    82   41  104 1    
    83   41  105 1    
    84   42   43 am   BACKBONE|DICT|INTERRES
    85   42  106 1    
    86   43   44 2    
    87   43   45 1    
    88   45   46 1    
    89   45   49 1    
    90   45  107 1    
    91   46   47 1    
    92   46  108 1    
    93   46  109 1    
    94   47   48 1    
    95   48  110 1    
    96   48  111 1    
    97   49   50 am   BACKBONE|DICT|INTERRES
    98   49  112 1    
    99   50   51 2    
   100   50   52 1    
   101   52   53 1    
   102   52   54 1    
   103   52  113 1    
   104   53  114 1    
   105   53  115 1    
   106   53  116 1    
   107   54   55 am   BACKBONE|DICT|INTERRES
   108   54  117 1    
   109   55   56 2    
   110   55   57 1    
   111   57   58 1    
   112   57   59 1    
   113   57  118 1    
   114   58  119 1    
   115   58  120 1    
   116   58  121 1    
   117   59   60 am   BACKBONE|DICT|INTERRES
   118   59  122 1    
   119   60   61 2    
   120   60   62 1    
   121   62   63 1    
   122   62   64 1    
   123   62  123 1    
   124   63  124 1    
   125   63  125 1    
   126   63  126 1    
   127   64   65 am   BACKBONE|DICT|INTERRES
   128   64  127 1    
   129   65   66 2    
@<TRIPOS>SUBSTRUCTURE
     1 UNK         1 GROUP             0       ****    0 ROOT    
