@<TRIPOS>MOLECULE
3R135
127   129    1
SMALL
USER_CHARGES


@<TRIPOS>ATOM
      1 CA        -83.1472   27.6943  -70.2902 C.3       0 UNK        -0.1998 
      2 C         -83.4912   27.4535  -71.7524 C.2       0 UNK         0.4909 
      3 O         -84.4990   26.8114  -72.0487 O.2       0 UNK        -0.5240 
      4 N         -82.6588   27.9640  -72.6689 N.am      1 UNK        -0.4739 
      5 CA        -82.8061   27.8060  -74.1224 C.3       1 UNK         0.0864 
      6 C6        -82.0168   28.8925  -74.9016 C.3       11 UNK        -0.0881 
      7 S7        -80.2115   28.8551  -74.6176 S.3       11 UNK        -0.2682 
      8 C8        -80.0212   30.1282  -73.3307 C.3       11 UNK         0.0289 
      9 C9        -78.7466   29.9165  -72.5280 C.ar      11 UNK        -0.0687 
     10 C10       -78.5694   28.7402  -71.7921 C.ar      11 UNK        -0.0823 
     11 C11       -77.4064   28.5366  -71.0453 C.ar      11 UNK        -0.0830 
     12 C12       -76.4241   29.5303  -71.0202 C.ar      11 UNK        -0.1021 
     13 C13       -76.5901   30.7120  -71.7481 C.ar      11 UNK        -0.0753 
     14 C14       -77.7529   30.8994  -72.5019 C.ar      11 UNK        -0.0933 
     15 C15       -75.5212   31.7923  -71.7133 C.3       11 UNK         0.0166 
     16 S16       -74.4898   31.7418  -73.2127 S.3       11 UNK        -0.2615 
     17 C17       -72.8042   31.5409  -72.5309 C.3       11 UNK        -0.0865 
     18 CA        -72.2298   30.1033  -72.6768 C.3       10 UNK         0.0862 
     19 C         -72.8111   29.1034  -71.6411 C.2       10 UNK         0.5551 
     20 N         -73.3603   27.9611  -72.0338 N.am      10 UNK        -0.7319 
     21 O         -72.7362   29.3586  -70.4417 O.2       10 UNK        -0.5018 
     22 N         -72.2449   29.6216  -74.0651 N.am      10 UNK        -0.4509 
     23 C         -71.3907   30.0176  -75.0139 C.2       10 UNK         0.4899 
     24 O         -70.4901   30.8390  -74.8291 O.2       10 UNK        -0.4839 
     25 CA        -71.5823   29.3790  -76.4006 C.3       9 UNK         0.0222 
     26 CB        -70.4591   29.7365  -77.3973 C.3       9 UNK        -0.1966 
     27 N         -71.7747   27.9266  -76.3296 N.am      9 UNK        -0.4218 
     28 C         -70.9213   27.0092  -75.8429 C.2       9 UNK         0.5020 
     29 O         -69.8203   27.2822  -75.3624 O.2       9 UNK        -0.5274 
     30 CA        -71.3520   25.5285  -75.8942 C.3       8 UNK         0.0270 
     31 CB        -71.6235   24.9948  -74.4772 C.3       8 UNK        -0.1976 
     32 N         -72.5233   25.2780  -76.7393 N.am      8 UNK        -0.4313 
     33 C         -72.5377   25.3768  -78.0761 C.2       8 UNK         0.5041 
     34 O         -71.5337   25.5901  -78.7568 O.2       8 UNK        -0.5577 
     35 CA        -73.9046   25.2632  -78.7717 C.3       7 UNK         0.0284 
     36 CB        -74.1890   23.8025  -79.1545 C.3       7 UNK        -0.1958 
     37 N         -75.0178   25.7996  -77.9774 N.am      7 UNK        -0.4454 
     38 C         -75.1482   27.0823  -77.6036 C.2       7 UNK         0.5089 
     39 O         -74.3365   27.9609  -77.8922 O.2       7 UNK        -0.5125 
     40 CA        -76.3550   27.4402  -76.7171 C.3       6 UNK         0.0408 
     41 CB        -77.6501   27.4998  -77.5416 C.3       6 UNK        -0.1791 
     42 N         -76.5209   26.5103  -75.6003 N.am      6 UNK        -0.4762 
     43 C         -75.6332   26.3410  -74.6080 C.2       6 UNK         0.5007 
     44 O         -74.6045   27.0115  -74.4827 O.2       6 UNK        -0.5032 
     45 CA        -75.9088   25.1674  -73.6453 C.3       5 UNK         0.0783 
     46 C46       -76.8753   25.5487  -72.4938 C.3       11 UNK        -0.0857 
     47 S47       -75.9875   26.1487  -71.0202 S.3       11 UNK        -0.2512 
     48 C48       -77.2159   27.2516  -70.2530 C.3       11 UNK         0.0225 
     49 N         -76.3898   23.9920  -74.3769 N.am      5 UNK        -0.4615 
     50 C         -75.6331   23.2350  -75.1819 C.2       4 UNK         0.5053 
     51 O         -74.4386   23.4417  -75.3896 O.2       4 UNK        -0.5105 
     52 CA        -76.3340   22.0665  -75.8957 C.3       4 UNK         0.0263 
     53 CB        -76.3707   20.8258  -74.9897 C.3       4 UNK        -0.1981 
     54 N         -77.6935   22.3967  -76.3314 N.am      4 UNK        -0.4224 
     55 C         -77.9808   23.3040  -77.2754 C.2       3 UNK         0.4895 
     56 O         -77.1301   23.9319  -77.9017 O.2       3 UNK        -0.5091 
     57 CA        -79.4655   23.5968  -77.5391 C.3       3 UNK         0.0250 
     58 CB        -80.0370   22.6039  -78.5635 C.3       3 UNK        -0.1996 
     59 N         -80.3008   23.5981  -76.3339 N.am      3 UNK        -0.4254 
     60 C         -80.1182   24.3954  -75.2722 C.2       2 UNK         0.5004 
     61 O         -79.1582   25.1586  -75.1354 O.2       2 UNK        -0.5226 
     62 CA        -81.1722   24.3040  -74.1589 C.3       2 UNK         0.0269 
     63 CB        -80.5800   23.6512  -72.8996 C.3       2 UNK        -0.1926 
     64 N         -81.6792   25.6320  -73.8197 N.am      2 UNK        -0.4687 
     65 C         -82.4628   26.3800  -74.6115 C.2       1 UNK         0.5165 
     66 O         -82.9188   25.9841  -75.6858 O.2       1 UNK        -0.5079 
     67 H67       -82.2343   28.2786  -70.1756 H         1 UNK         0.0900 
     68 H68       -83.0080   26.7436  -69.7763 H         1 UNK         0.0900 
     69 H69       -83.9574   28.2320  -69.7983 H         1 UNK         0.0900 
     70 H70       -81.8471   28.4835  -72.3710 H         1 UNK         0.2959 
     71 H71       -83.8632   27.9515  -74.3572 H         1 UNK         0.1079 
     72 H72       -82.1911   28.7848  -75.9740 H         1 UNK         0.0837 
     73 H73       -82.4005   29.8819  -74.6478 H         1 UNK         0.0837 
     74 H74       -80.0292   31.1107  -73.8051 H         1 UNK         0.0685 
     75 H75       -80.8696   30.1102  -72.6468 H         1 UNK         0.0685 
     76 H76       -79.3347   27.9771  -71.8124 H         1 UNK         0.1434 
     77 H77       -75.5266   29.3776  -70.4369 H         1 UNK         0.1329 
     78 H78       -77.8807   31.8129  -73.0665 H         1 UNK         0.1335 
     79 H79       -75.9924   32.7737  -71.6419 H         1 UNK         0.0680 
     80 H80       -74.9113   31.6843  -70.8156 H         1 UNK         0.0680 
     81 H81       -72.7647   31.8740  -71.4927 H         1 UNK         0.1032 
     82 H82       -72.1577   32.2368  -73.0673 H         1 UNK         0.1032 
     83 H83       -71.1777   30.1616  -72.3903 H         1 UNK         0.0461 
     84 H84       -73.7339   27.3483  -71.3266 H         1 UNK         0.3453 
     85 H85       -73.5301   27.7367  -73.0053 H         1 UNK         0.3453 
     86 H86       -72.9658   28.9533  -74.2978 H         1 UNK         0.2984 
     87 H87       -72.5124   29.7892  -76.7963 H         1 UNK         0.0554 
     88 H88       -70.6401   29.2886  -78.3744 H         1 UNK         0.0847 
     89 H89       -69.4831   29.3977  -77.0484 H         1 UNK         0.0847 
     90 H90       -70.3951   30.8155  -77.5427 H         1 UNK         0.0847 
     91 H91       -72.6579   27.6004  -76.7075 H         1 UNK         0.3141 
     92 H92       -70.5138   24.9666  -76.3114 H         1 UNK         0.0743 
     93 H93       -72.4589   25.5095  -74.0033 H         1 UNK         0.0784 
     94 H94       -71.8508   23.9288  -74.4914 H         1 UNK         0.0784 
     95 H95       -70.7529   25.1298  -73.8341 H         1 UNK         0.0784 
     96 H96       -73.3781   25.0063  -76.2643 H         1 UNK         0.3213 
     97 H97       -73.8497   25.8498  -79.6912 H         1 UNK         0.0855 
     98 H98       -74.2932   23.1692  -78.2732 H         1 UNK         0.0814 
     99 H99       -73.3791   23.3913  -79.7586 H         1 UNK         0.0814 
    100 H100      -75.1040   23.7165  -79.7406 H         1 UNK         0.0814 
    101 H101      -75.7644   25.1450  -77.7486 H         1 UNK         0.3105 
    102 H102      -76.1786   28.4317  -76.2948 H         1 UNK         0.0547 
    103 H103      -77.5646   28.2290  -78.3480 H         1 UNK         0.0837 
    104 H104      -77.8890   26.5383  -77.9955 H         1 UNK         0.0837 
    105 H105      -78.4986   27.7957  -76.9249 H         1 UNK         0.0837 
    106 H106      -77.3631   25.9411  -75.5945 H         1 UNK         0.3020 
    107 H107      -74.9457   24.8861  -73.2121 H         1 UNK         0.1245 
    108 H108      -77.4365   24.6733  -72.1651 H         1 UNK         0.0781 
    109 H109      -77.6248   26.2713  -72.8217 H         1 UNK         0.0781 
    110 H110      -76.8823   27.5002  -69.2445 H         1 UNK         0.0836 
    111 H111      -78.1603   26.7173  -70.1372 H         1 UNK         0.0836 
    112 H112      -77.3814   23.8081  -74.3271 H         1 UNK         0.3022 
    113 H113      -75.7472   21.8214  -76.7833 H         1 UNK         0.0747 
    114 H114      -76.7892   19.9653  -75.5120 H         1 UNK         0.0793 
    115 H115      -75.3655   20.5493  -74.6679 H         1 UNK         0.0793 
    116 H116      -76.9651   20.9960  -74.0910 H         1 UNK         0.0793 
    117 H117      -78.4562   21.9238  -75.8690 H         1 UNK         0.3047 
    118 H118      -79.5238   24.5985  -77.9699 H         1 UNK         0.0822 
    119 H119      -81.0561   22.8677  -78.8468 H         1 UNK         0.0807 
    120 H120      -80.0481   21.5837  -78.1777 H         1 UNK         0.0807 
    121 H121      -79.4407   22.6002  -79.4773 H         1 UNK         0.0807 
    122 H122      -81.1137   22.9989  -76.3550 H         1 UNK         0.2946 
    123 H123      -82.0110   23.6951  -74.5039 H         1 UNK         0.1144 
    124 H124      -79.7713   24.2481  -72.4778 H         1 UNK         0.0793 
    125 H125      -80.1769   22.6622  -73.1220 H         1 UNK         0.0793 
    126 H126      -81.3384   23.5243  -72.1268 H         1 UNK         0.0793 
    127 H127      -81.3285   26.0516  -72.9725 H         1 UNK         0.2896 
@<TRIPOS>BOND
     1    1    2 1    
     2    1   67 1    
     3    1   68 1    
     4    1   69 1    
     5    2    3 2    
     6    2    4 am   BACKBONE|DICT|INTERRES
     7    4    5 1    
     8    4   70 1    
     9    5    6 1    
    10    5   65 1    
    11    5   71 1    
    12    6    7 1    
    13    6   72 1    
    14    6   73 1    
    15    7    8 1    
    16    8    9 1    
    17    8   74 1    
    18    8   75 1    
    19    9   10 ar   
    20    9   14 ar   
    21   10   11 ar   
    22   10   76 1    
    23   11   12 ar   
    24   11   48 1    
    25   12   13 ar   
    26   12   77 1    
    27   13   14 ar   
    28   13   15 1    
    29   14   78 1    
    30   15   16 1    
    31   15   79 1    
    32   15   80 1    
    33   16   17 1    
    34   17   18 1    
    35   17   81 1    
    36   17   82 1    
    37   18   19 1    
    38   18   22 1    
    39   18   83 1    
    40   19   20 am   BACKBONE|DICT|INTERRES
    41   19   21 2    
    42   20   84 1    
    43   20   85 1    
    44   22   23 am   BACKBONE|DICT|INTERRES
    45   22   86 1    
    46   23   24 2    
    47   23   25 1    
    48   25   26 1    
    49   25   27 1    
    50   25   87 1    
    51   26   88 1    
    52   26   89 1    
    53   26   90 1    
    54   27   28 am   BACKBONE|DICT|INTERRES
    55   27   91 1    
    56   28   29 2    
    57   28   30 1    
    58   30   31 1    
    59   30   32 1    
    60   30   92 1    
    61   31   93 1    
    62   31   94 1    
    63   31   95 1    
    64   32   33 am   BACKBONE|DICT|INTERRES
    65   32   96 1    
    66   33   34 2    
    67   33   35 1    
    68   35   36 1    
    69   35   37 1    
    70   35   97 1    
    71   36   98 1    
    72   36   99 1    
    73   36  100 1    
    74   37   38 am   BACKBONE|DICT|INTERRES
    75   37  101 1    
    76   38   39 2    
    77   38   40 1    
    78   40   41 1    
    79   40   42 1    
    80   40  102 1    
    81   41  103 1    
    82   41  104 1    
    83   41  105 1    
    84   42   43 am   BACKBONE|DICT|INTERRES
    85   42  106 1    
    86   43   44 2    
    87   43   45 1    
    88   45   46 1    
    89   45   49 1    
    90   45  107 1    
    91   46   47 1    
    92   46  108 1    
    93   46  109 1    
    94   47   48 1    
    95   48  110 1    
    96   48  111 1    
    97   49   50 am   BACKBONE|DICT|INTERRES
    98   49  112 1    
    99   50   51 2    
   100   50   52 1    
   101   52   53 1    
   102   52   54 1    
   103   52  113 1    
   104   53  114 1    
   105   53  115 1    
   106   53  116 1    
   107   54   55 am   BACKBONE|DICT|INTERRES
   108   54  117 1    
   109   55   56 2    
   110   55   57 1    
   111   57   58 1    
   112   57   59 1    
   113   57  118 1    
   114   58  119 1    
   115   58  120 1    
   116   58  121 1    
   117   59   60 am   BACKBONE|DICT|INTERRES
   118   59  122 1    
   119   60   61 2    
   120   60   62 1    
   121   62   63 1    
   122   62   64 1    
   123   62  123 1    
   124   63  124 1    
   125   63  125 1    
   126   63  126 1    
   127   64   65 am   BACKBONE|DICT|INTERRES
   128   64  127 1    
   129   65   66 2    
@<TRIPOS>SUBSTRUCTURE
     1 UNK         1 GROUP             0       ****    0 ROOT    
