@<TRIPOS>MOLECULE
3R135
127   129    1
SMALL
USER_CHARGES


@<TRIPOS>ATOM
      1 CA        -76.1003   25.6841  -69.9598 C.3       0 UNK        -0.1998 
      2 C         -77.4975   25.1088  -69.7857 C.2       0 UNK         0.4909 
      3 O         -77.7711   24.4428  -68.7872 O.2       0 UNK        -0.5240 
      4 N         -78.3856   25.3627  -70.7552 N.am      1 UNK        -0.4739 
      5 CA        -79.7989   24.9499  -70.7371 C.3       1 UNK         0.0864 
      6 C6        -80.6794   25.8004  -71.6938 C.3       11 UNK        -0.0881 
      7 S7        -80.3558   27.5967  -71.6340 S.3       11 UNK        -0.2682 
      8 C8        -79.3807   27.7516  -73.1604 C.3       11 UNK         0.0289 
      9 C9        -78.9256   29.1748  -73.4188 C.ar      11 UNK        -0.0687 
     10 C10       -79.5573   29.9368  -74.4037 C.ar      11 UNK        -0.0823 
     11 C11       -79.0666   31.2002  -74.7437 C.ar      11 UNK        -0.0830 
     12 C12       -77.9848   31.7313  -74.0382 C.ar      11 UNK        -0.1021 
     13 C13       -77.3578   30.9852  -73.0366 C.ar      11 UNK        -0.0753 
     14 C14       -77.8266   29.7027  -72.7350 C.ar      11 UNK        -0.0933 
     15 C15       -76.1405   31.5470  -72.3230 C.3       11 UNK         0.0166 
     16 S16       -74.7353   31.6491  -73.4709 S.3       11 UNK        -0.2615 
     17 C17       -73.3111   31.6470  -72.3261 C.3       11 UNK        -0.0865 
     18 CA        -72.6325   30.2582  -72.1604 C.3       10 UNK         0.0862 
     19 C         -73.3851   29.3550  -71.1451 C.2       10 UNK         0.5551 
     20 N         -73.1422   29.5458  -69.8556 N.am      10 UNK        -0.7319 
     21 O         -74.2100   28.5175  -71.5050 O.2       10 UNK        -0.5018 
     22 N         -72.4585   29.5897  -73.4542 N.am      10 UNK        -0.4509 
     23 C         -71.4745   28.7457  -73.7694 C.2       10 UNK         0.4899 
     24 O         -70.4925   28.5277  -73.0571 O.2       10 UNK        -0.4839 
     25 CA        -71.6526   28.0170  -75.1128 C.3       9 UNK         0.0222 
     26 CB        -70.4303   27.1632  -75.5107 C.3       9 UNK        -0.1966 
     27 N         -72.8800   27.2124  -75.1347 N.am      9 UNK        -0.4218 
     28 C         -73.2019   26.1936  -74.3181 C.2       9 UNK         0.5020 
     29 O         -72.5015   25.7921  -73.3877 O.2       9 UNK        -0.5274 
     30 CA        -74.5197   25.4617  -74.6239 C.3       8 UNK         0.0270 
     31 CB        -75.7158   26.2028  -74.0034 C.3       8 UNK        -0.1976 
     32 N         -74.7415   25.2956  -76.0604 N.am      8 UNK        -0.4313 
     33 C         -73.9796   24.5682  -76.8894 C.2       8 UNK         0.5041 
     34 O         -73.0515   23.8476  -76.5207 O.2       8 UNK        -0.5577 
     35 CA        -74.2884   24.6910  -78.3895 C.3       7 UNK         0.0284 
     36 CB        -75.4363   23.7561  -78.8014 C.3       7 UNK        -0.1958 
     37 N         -74.6221   26.0684  -78.7579 N.am      7 UNK        -0.4454 
     38 C         -73.7193   27.0310  -78.9861 C.2       7 UNK         0.5089 
     39 O         -72.5023   26.8482  -78.9586 O.2       7 UNK        -0.5125 
     40 CA        -74.2557   28.4368  -79.3111 C.3       6 UNK         0.0408 
     41 CB        -74.2951   28.6528  -80.8322 C.3       6 UNK        -0.1791 
     42 N         -75.5839   28.7090  -78.7535 N.am      6 UNK        -0.4762 
     43 C         -75.8278   28.9555  -77.4583 C.2       6 UNK         0.5007 
     44 O         -74.9613   28.9239  -76.5815 O.2       6 UNK        -0.5032 
     45 CA        -77.3007   29.2414  -77.0875 C.3       5 UNK         0.0783 
     46 C46       -77.7223   30.6565  -77.5873 C.3       11 UNK        -0.0857 
     47 S47       -79.5185   31.0028  -77.4708 S.3       11 UNK        -0.2512 
     48 C48       -79.6565   31.9579  -75.9222 C.3       11 UNK         0.0225 
     49 N         -78.2511   28.1964  -77.5078 N.am      5 UNK        -0.4615 
     50 C         -78.1131   26.8682  -77.4014 C.2       4 UNK         0.5053 
     51 O         -77.0612   26.3087  -77.0971 O.2       4 UNK        -0.5105 
     52 CA        -79.3555   26.0206  -77.7350 C.3       4 UNK         0.0263 
     53 CB        -79.5824   25.9872  -79.2559 C.3       4 UNK        -0.1981 
     54 N         -79.2558   24.6385  -77.2468 N.am      4 UNK        -0.4224 
     55 C         -79.1672   24.2686  -75.9610 C.2       3 UNK         0.4895 
     56 O         -79.2339   25.0523  -75.0102 O.2       3 UNK        -0.5091 
     57 CA        -78.9631   22.7688  -75.6926 C.3       3 UNK         0.0250 
     58 CB        -77.6590   22.2494  -76.3320 C.3       3 UNK        -0.1996 
     59 N         -78.9220   22.5575  -74.2484 N.am      3 UNK        -0.4254 
     60 C         -79.1135   21.4018  -73.6001 C.2       2 UNK         0.5004 
     61 O         -79.3855   20.3411  -74.1640 O.2       2 UNK        -0.5226 
     62 CA        -78.9601   21.4176  -72.0668 C.3       2 UNK         0.0269 
     63 CB        -77.6668   20.6952  -71.6525 C.3       2 UNK        -0.1926 
     64 N         -78.9287   22.7799  -71.5270 N.am      2 UNK        -0.4687 
     65 C         -79.9936   23.4516  -71.0676 C.2       1 UNK         0.5165 
     66 O         -81.1106   22.9471  -70.9442 O.2       1 UNK        -0.5079 
     67 H67       -76.1143   26.5932  -70.5610 H         1 UNK         0.0900 
     68 H68       -75.4481   24.9583  -70.4448 H         1 UNK         0.0900 
     69 H69       -75.6694   25.9354  -68.9909 H         1 UNK         0.0900 
     70 H70       -78.1129   25.9342  -71.5406 H         1 UNK         0.2959 
     71 H71       -80.1734   25.0979  -69.7215 H         1 UNK         0.1079 
     72 H72       -80.5721   25.4592  -72.7254 H         1 UNK         0.0837 
     73 H73       -81.7333   25.6507  -71.4516 H         1 UNK         0.0837 
     74 H74       -79.9794   27.3956  -74.0003 H         1 UNK         0.0685 
     75 H75       -78.5089   27.0989  -73.1113 H         1 UNK         0.0685 
     76 H76       -80.3901   29.5216  -74.9549 H         1 UNK         0.1434 
     77 H77       -77.5958   32.7070  -74.2963 H         1 UNK         0.1329 
     78 H78       -77.3241   29.1063  -71.9852 H         1 UNK         0.1335 
     79 H79       -76.3634   32.5397  -71.9293 H         1 UNK         0.0680 
     80 H80       -75.8802   30.9218  -71.4680 H         1 UNK         0.0680 
     81 H81       -73.6008   32.0697  -71.3619 H         1 UNK         0.1032 
     82 H82       -72.5788   32.3458  -72.7331 H         1 UNK         0.1032 
     83 H83       -71.6398   30.4394  -71.7426 H         1 UNK         0.0461 
     84 H84       -73.6298   28.9800  -69.1792 H         1 UNK         0.3453 
     85 H85       -72.4730   30.2324  -69.5440 H         1 UNK         0.3453 
     86 H86       -73.2473   29.6735  -74.0809 H         1 UNK         0.2984 
     87 H87       -71.7768   28.7870  -75.8760 H         1 UNK         0.0554 
     88 H88       -70.5774   26.6945  -76.4841 H         1 UNK         0.0847 
     89 H89       -70.2306   26.3734  -74.7859 H         1 UNK         0.0847 
     90 H90       -69.5317   27.7775  -75.5777 H         1 UNK         0.0847 
     91 H91       -73.5751   27.5014  -75.8151 H         1 UNK         0.3141 
     92 H92       -74.4624   24.4667  -74.1779 H         1 UNK         0.0743 
     93 H93       -75.8573   27.1888  -74.4486 H         1 UNK         0.0784 
     94 H94       -76.6404   25.6412  -74.1370 H         1 UNK         0.0784 
     95 H95       -75.5698   26.3488  -72.9332 H         1 UNK         0.0784 
     96 H96       -75.5420   25.7912  -76.4564 H         1 UNK         0.3213 
     97 H97       -73.3942   24.3845  -78.9371 H         1 UNK         0.0855 
     98 H98       -76.3808   24.0522  -78.3466 H         1 UNK         0.0814 
     99 H99       -75.2319   22.7282  -78.4984 H         1 UNK         0.0814 
    100 H100      -75.5742   23.7540  -79.8826 H         1 UNK         0.0814 
    101 H101      -75.5994   26.3267  -78.7145 H         1 UNK         0.3105 
    102 H102      -73.5546   29.1589  -78.8866 H         1 UNK         0.0547 
    103 H103      -73.3119   28.4874  -81.2751 H         1 UNK         0.0837 
    104 H104      -74.9905   27.9691  -81.3207 H         1 UNK         0.0837 
    105 H105      -74.5924   29.6714  -81.0818 H         1 UNK         0.0837 
    106 H106      -76.3594   28.7234  -79.4009 H         1 UNK         0.3020 
    107 H107      -77.3333   29.2494  -75.9967 H         1 UNK         0.1245 
    108 H108      -77.4564   30.7866  -78.6380 H         1 UNK         0.0781 
    109 H109      -77.1708   31.4276  -77.0456 H         1 UNK         0.0781 
    110 H110      -80.7080   32.1699  -75.7243 H         1 UNK         0.0836 
    111 H111      -79.1652   32.9231  -76.0555 H         1 UNK         0.0836 
    112 H112      -79.1477   28.5570  -77.8021 H         1 UNK         0.3022 
    113 H113      -80.2197   26.4833  -77.2540 H         1 UNK         0.0747 
    114 H114      -80.4796   25.4228  -79.5109 H         1 UNK         0.0793 
    115 H115      -79.7125   26.9918  -79.6607 H         1 UNK         0.0793 
    116 H116      -78.7398   25.5323  -79.7789 H         1 UNK         0.0793 
    117 H117      -79.1774   23.9243  -77.9551 H         1 UNK         0.3047 
    118 H118      -79.8187   22.2295  -76.1043 H         1 UNK         0.0822 
    119 H119      -77.7113   22.2855  -77.4199 H         1 UNK         0.0807 
    120 H120      -77.4649   21.2108  -76.0641 H         1 UNK         0.0807 
    121 H121      -76.7962   22.8398  -76.0196 H         1 UNK         0.0807 
    122 H122      -78.7821   23.4087  -73.7196 H         1 UNK         0.2946 
    123 H123      -79.8081   20.8698  -71.6490 H         1 UNK         0.1144 
    124 H124      -77.6639   19.6639  -72.0084 H         1 UNK         0.0793 
    125 H125      -77.5619   20.6621  -70.5679 H         1 UNK         0.0793 
    126 H126      -76.7812   21.1835  -72.0612 H         1 UNK         0.0793 
    127 H127      -78.0455   23.2678  -71.5660 H         1 UNK         0.2896 
@<TRIPOS>BOND
     1    1    2 1    
     2    1   67 1    
     3    1   68 1    
     4    1   69 1    
     5    2    3 2    
     6    2    4 am   BACKBONE|DICT|INTERRES
     7    4    5 1    
     8    4   70 1    
     9    5    6 1    
    10    5   65 1    
    11    5   71 1    
    12    6    7 1    
    13    6   72 1    
    14    6   73 1    
    15    7    8 1    
    16    8    9 1    
    17    8   74 1    
    18    8   75 1    
    19    9   10 ar   
    20    9   14 ar   
    21   10   11 ar   
    22   10   76 1    
    23   11   12 ar   
    24   11   48 1    
    25   12   13 ar   
    26   12   77 1    
    27   13   14 ar   
    28   13   15 1    
    29   14   78 1    
    30   15   16 1    
    31   15   79 1    
    32   15   80 1    
    33   16   17 1    
    34   17   18 1    
    35   17   81 1    
    36   17   82 1    
    37   18   19 1    
    38   18   22 1    
    39   18   83 1    
    40   19   20 am   BACKBONE|DICT|INTERRES
    41   19   21 2    
    42   20   84 1    
    43   20   85 1    
    44   22   23 am   BACKBONE|DICT|INTERRES
    45   22   86 1    
    46   23   24 2    
    47   23   25 1    
    48   25   26 1    
    49   25   27 1    
    50   25   87 1    
    51   26   88 1    
    52   26   89 1    
    53   26   90 1    
    54   27   28 am   BACKBONE|DICT|INTERRES
    55   27   91 1    
    56   28   29 2    
    57   28   30 1    
    58   30   31 1    
    59   30   32 1    
    60   30   92 1    
    61   31   93 1    
    62   31   94 1    
    63   31   95 1    
    64   32   33 am   BACKBONE|DICT|INTERRES
    65   32   96 1    
    66   33   34 2    
    67   33   35 1    
    68   35   36 1    
    69   35   37 1    
    70   35   97 1    
    71   36   98 1    
    72   36   99 1    
    73   36  100 1    
    74   37   38 am   BACKBONE|DICT|INTERRES
    75   37  101 1    
    76   38   39 2    
    77   38   40 1    
    78   40   41 1    
    79   40   42 1    
    80   40  102 1    
    81   41  103 1    
    82   41  104 1    
    83   41  105 1    
    84   42   43 am   BACKBONE|DICT|INTERRES
    85   42  106 1    
    86   43   44 2    
    87   43   45 1    
    88   45   46 1    
    89   45   49 1    
    90   45  107 1    
    91   46   47 1    
    92   46  108 1    
    93   46  109 1    
    94   47   48 1    
    95   48  110 1    
    96   48  111 1    
    97   49   50 am   BACKBONE|DICT|INTERRES
    98   49  112 1    
    99   50   51 2    
   100   50   52 1    
   101   52   53 1    
   102   52   54 1    
   103   52  113 1    
   104   53  114 1    
   105   53  115 1    
   106   53  116 1    
   107   54   55 am   BACKBONE|DICT|INTERRES
   108   54  117 1    
   109   55   56 2    
   110   55   57 1    
   111   57   58 1    
   112   57   59 1    
   113   57  118 1    
   114   58  119 1    
   115   58  120 1    
   116   58  121 1    
   117   59   60 am   BACKBONE|DICT|INTERRES
   118   59  122 1    
   119   60   61 2    
   120   60   62 1    
   121   62   63 1    
   122   62   64 1    
   123   62  123 1    
   124   63  124 1    
   125   63  125 1    
   126   63  126 1    
   127   64   65 am   BACKBONE|DICT|INTERRES
   128   64  127 1    
   129   65   66 2    
@<TRIPOS>SUBSTRUCTURE
     1 UNK         1 GROUP             0       ****    0 ROOT    
