@<TRIPOS>MOLECULE
3R135
127   129    1
SMALL
USER_CHARGES


@<TRIPOS>ATOM
      1 CA        -80.2555   21.5537  -72.1022 C.3       0 UNK        -0.1998 
      2 C         -80.0718   23.0427  -72.3481 C.2       0 UNK         0.4909 
      3 O         -79.0392   23.4483  -72.8787 O.2       0 UNK        -0.5240 
      4 N         -81.0733   23.8584  -71.9872 N.am      1 UNK        -0.4739 
      5 CA        -81.0874   25.3274  -72.1032 C.3       1 UNK         0.0864 
      6 C6        -80.0064   26.0063  -71.2080 C.3       11 UNK        -0.0881 
      7 S7        -80.6473   27.4348  -70.2771 S.3       11 UNK        -0.2682 
      8 C8        -79.0892   28.2856  -69.8366 C.3       11 UNK         0.0289 
      9 C9        -78.5972   29.3636  -70.8088 C.ar      11 UNK        -0.0687 
     10 C10       -79.2626   29.6931  -71.9992 C.ar      11 UNK        -0.0823 
     11 C11       -78.7998   30.7327  -72.8143 C.ar      11 UNK        -0.0830 
     12 C12       -77.6553   31.4410  -72.4415 C.ar      11 UNK        -0.1021 
     13 C13       -76.9704   31.1160  -71.2688 C.ar      11 UNK        -0.0753 
     14 C14       -77.4453   30.0786  -70.4611 C.ar      11 UNK        -0.0933 
     15 C15       -75.7413   31.9157  -70.8615 C.3       11 UNK         0.0166 
     16 S16       -74.2710   31.4447  -71.8230 S.3       11 UNK        -0.2615 
     17 C17       -73.8242   29.8617  -71.0331 C.3       11 UNK        -0.0865 
     18 CA        -72.6080   29.1880  -71.7207 C.3       10 UNK         0.0862 
     19 C         -72.0771   27.9910  -70.8794 C.2       10 UNK         0.5551 
     20 N         -72.0198   26.7707  -71.3972 N.am      10 UNK        -0.7319 
     21 O         -71.6949   28.1789  -69.7267 O.2       10 UNK        -0.5018 
     22 N         -72.9167   28.8542  -73.1169 N.am      10 UNK        -0.4509 
     23 C         -72.0402   28.8111  -74.1232 C.2       10 UNK         0.4899 
     24 O         -70.8381   29.0624  -74.0160 O.2       10 UNK        -0.4839 
     25 CA        -72.6241   28.4204  -75.4928 C.3       9 UNK         0.0222 
     26 CB        -72.1982   29.4176  -76.5833 C.3       9 UNK        -0.1966 
     27 N         -72.2854   27.0627  -75.9278 N.am      9 UNK        -0.4218 
     28 C         -72.3741   25.9297  -75.2167 C.2       9 UNK         0.5020 
     29 O         -72.6440   25.8775  -74.0172 O.2       9 UNK        -0.5274 
     30 CA        -72.1791   24.6257  -76.0076 C.3       8 UNK         0.0270 
     31 CB        -72.3669   23.3648  -75.1421 C.3       8 UNK        -0.1976 
     32 N         -73.1169   24.5686  -77.1298 N.am      8 UNK        -0.4313 
     33 C         -72.8980   25.0891  -78.3417 C.2       8 UNK         0.5041 
     34 O         -71.8815   25.7201  -78.6354 O.2       8 UNK        -0.5577 
     35 CA        -74.0060   24.9077  -79.3816 C.3       7 UNK         0.0284 
     36 CB        -74.4435   23.4363  -79.5176 C.3       7 UNK        -0.1958 
     37 N         -75.1613   25.7384  -79.0386 N.am      7 UNK        -0.4454 
     38 C         -75.5990   26.7579  -79.7891 C.2       7 UNK         0.5089 
     39 O         -75.0344   27.1501  -80.8114 O.2       7 UNK        -0.5125 
     40 CA        -76.9099   27.4404  -79.3707 C.3       6 UNK         0.0408 
     41 CB        -78.1058   26.7238  -80.0186 C.3       6 UNK        -0.1791 
     42 N         -77.1236   27.5054  -77.9259 N.am      6 UNK        -0.4762 
     43 C         -76.5544   28.4074  -77.1128 C.2       6 UNK         0.5007 
     44 O         -75.6694   29.1860  -77.4677 O.2       6 UNK        -0.5032 
     45 CA        -77.0703   28.4474  -75.6641 C.3       5 UNK         0.0783 
     46 C46       -78.5244   28.9726  -75.5859 C.3       11 UNK        -0.0857 
     47 S47       -78.6095   30.7921  -75.5988 S.3       11 UNK        -0.2512 
     48 C48       -79.5584   31.1216  -74.0776 C.3       11 UNK         0.0225 
     49 N         -76.9598   27.1109  -75.0891 N.am      5 UNK        -0.4615 
     50 C         -76.1023   26.7576  -74.1263 C.2       4 UNK         0.5053 
     51 O         -75.3900   27.5639  -73.5291 O.2       4 UNK        -0.5105 
     52 CA        -76.0076   25.2609  -73.7651 C.3       4 UNK         0.0263 
     53 CB        -76.1578   25.0294  -72.2527 C.3       4 UNK        -0.1981 
     54 N         -76.9539   24.4093  -74.4918 N.am      4 UNK        -0.4224 
     55 C         -76.8162   24.0367  -75.7712 C.2       3 UNK         0.4895 
     56 O         -75.8661   24.3636  -76.4831 O.2       3 UNK        -0.5091 
     57 CA        -77.9586   23.2131  -76.3814 C.3       3 UNK         0.0250 
     58 CB        -77.8418   21.7377  -75.9681 C.3       3 UNK        -0.1996 
     59 N         -79.2915   23.7184  -76.0384 N.am      3 UNK        -0.4254 
     60 C         -79.7687   24.9288  -76.3644 C.2       2 UNK         0.5004 
     61 O         -79.1065   25.7944  -76.9364 O.2       2 UNK        -0.5226 
     62 CA        -81.2203   25.2259  -75.9576 C.3       2 UNK         0.0269 
     63 CB        -82.2119   24.3876  -76.7814 C.3       2 UNK        -0.1926 
     64 N         -81.4217   24.9767  -74.5295 N.am      2 UNK        -0.4687 
     65 C         -81.0446   25.8310  -73.5671 C.2       1 UNK         0.5165 
     66 O         -80.6684   26.9772  -73.8064 O.2       1 UNK        -0.5079 
     67 H67       -80.1877   21.0071  -73.0423 H         1 UNK         0.0900 
     68 H68       -79.4733   21.1869  -71.4383 H         1 UNK         0.0900 
     69 H69       -81.2201   21.3305  -71.6469 H         1 UNK         0.0900 
     70 H70       -81.9024   23.4569  -71.5700 H         1 UNK         0.2959 
     71 H71       -82.0724   25.6212  -71.7367 H         1 UNK         0.1079 
     72 H72       -79.6194   25.3024  -70.4694 H         1 UNK         0.0837 
     73 H73       -79.1403   26.3198  -71.7926 H         1 UNK         0.0837 
     74 H74       -79.2418   28.7554  -68.8639 H         1 UNK         0.0685 
     75 H75       -78.3019   27.5438  -69.6939 H         1 UNK         0.0685 
     76 H76       -80.1533   29.1575  -72.2946 H         1 UNK         0.1434 
     77 H77       -77.2970   32.2485  -73.0657 H         1 UNK         0.1329 
     78 H78       -76.9246   29.8376  -69.5442 H         1 UNK         0.1335 
     79 H79       -75.5355   31.8013  -69.7960 H         1 UNK         0.0680 
     80 H80       -75.9361   32.9774  -71.0198 H         1 UNK         0.0680 
     81 H81       -73.6141   30.0622  -69.9807 H         1 UNK         0.1032 
     82 H82       -74.6869   29.1929  -71.0553 H         1 UNK         0.1032 
     83 H83       -71.7954   29.9170  -71.7256 H         1 UNK         0.0461 
     84 H84       -71.6677   26.0135  -70.8350 H         1 UNK         0.3453 
     85 H85       -72.3197   26.5900  -72.3540 H         1 UNK         0.3453 
     86 H86       -73.8652   28.5220  -73.2862 H         1 UNK         0.2984 
     87 H87       -73.7122   28.4640  -75.4262 H         1 UNK         0.0554 
     88 H88       -72.4431   30.4402  -76.2928 H         1 UNK         0.0847 
     89 H89       -72.7124   29.2198  -77.5243 H         1 UNK         0.0847 
     90 H90       -71.1243   29.3788  -76.7703 H         1 UNK         0.0847 
     91 H91       -72.0423   26.9551  -76.9064 H         1 UNK         0.3141 
     92 H92       -71.1536   24.6217  -76.3833 H         1 UNK         0.0743 
     93 H93       -71.6778   23.3640  -74.2965 H         1 UNK         0.0784 
     94 H94       -73.3784   23.2952  -74.7405 H         1 UNK         0.0784 
     95 H95       -72.1735   22.4591  -75.7169 H         1 UNK         0.0784 
     96 H96       -74.0464   24.2083  -76.9241 H         1 UNK         0.3213 
     97 H97       -73.5838   25.2064  -80.3436 H         1 UNK         0.0855 
     98 H98       -74.9363   23.0604  -78.6211 H         1 UNK         0.0814 
     99 H99       -73.5863   22.7911  -79.7148 H         1 UNK         0.0814 
    100 H100      -75.1374   23.3122  -80.3491 H         1 UNK         0.0814 
    101 H101      -75.6520   25.5023  -78.1822 H         1 UNK         0.3105 
    102 H102      -76.8861   28.4618  -79.7571 H         1 UNK         0.0547 
    103 H103      -79.0419   27.2385  -79.8019 H         1 UNK         0.0837 
    104 H104      -77.9999   26.6874  -81.1037 H         1 UNK         0.0837 
    105 H105      -78.2004   25.6962  -79.6647 H         1 UNK         0.0837 
    106 H106      -77.8510   26.8938  -77.5553 H         1 UNK         0.3020 
    107 H107      -76.4283   29.1371  -75.1103 H         1 UNK         0.1245 
    108 H108      -78.9748   28.6255  -74.6580 H         1 UNK         0.0781 
    109 H109      -79.1582   28.5725  -76.3795 H         1 UNK         0.0781 
    110 H110      -80.5155   30.6003  -74.1347 H         1 UNK         0.0836 
    111 H111      -79.7950   32.1857  -74.0354 H         1 UNK         0.0836 
    112 H112      -77.5183   26.3916  -75.5289 H         1 UNK         0.3022 
    113 H113      -75.0045   24.9389  -74.0404 H         1 UNK         0.0747 
    114 H114      -77.1384   25.3321  -71.8926 H         1 UNK         0.0793 
    115 H115      -76.0194   23.9785  -71.9989 H         1 UNK         0.0793 
    116 H116      -75.4127   25.5974  -71.6936 H         1 UNK         0.0793 
    117 H117      -77.7697   24.0872  -73.9690 H         1 UNK         0.3047 
    118 H118      -77.8568   23.2713  -77.4673 H         1 UNK         0.0822 
    119 H119      -76.8610   21.3364  -76.2276 H         1 UNK         0.0807 
    120 H120      -78.5856   21.1231  -76.4754 H         1 UNK         0.0807 
    121 H121      -77.9739   21.6067  -74.8931 H         1 UNK         0.0807 
    122 H122      -79.8896   23.0907  -75.5231 H         1 UNK         0.2946 
    123 H123      -81.4136   26.2803  -76.1707 H         1 UNK         0.1144 
    124 H124      -83.2424   24.6571  -76.5492 H         1 UNK         0.0793 
    125 H125      -82.0981   23.3182  -76.6003 H         1 UNK         0.0793 
    126 H126      -82.0683   24.5548  -77.8499 H         1 UNK         0.0793 
    127 H127      -81.7401   24.0592  -74.2542 H         1 UNK         0.2896 
@<TRIPOS>BOND
     1    1    2 1    
     2    1   67 1    
     3    1   68 1    
     4    1   69 1    
     5    2    3 2    
     6    2    4 am   BACKBONE|DICT|INTERRES
     7    4    5 1    
     8    4   70 1    
     9    5    6 1    
    10    5   65 1    
    11    5   71 1    
    12    6    7 1    
    13    6   72 1    
    14    6   73 1    
    15    7    8 1    
    16    8    9 1    
    17    8   74 1    
    18    8   75 1    
    19    9   10 ar   
    20    9   14 ar   
    21   10   11 ar   
    22   10   76 1    
    23   11   12 ar   
    24   11   48 1    
    25   12   13 ar   
    26   12   77 1    
    27   13   14 ar   
    28   13   15 1    
    29   14   78 1    
    30   15   16 1    
    31   15   79 1    
    32   15   80 1    
    33   16   17 1    
    34   17   18 1    
    35   17   81 1    
    36   17   82 1    
    37   18   19 1    
    38   18   22 1    
    39   18   83 1    
    40   19   20 am   BACKBONE|DICT|INTERRES
    41   19   21 2    
    42   20   84 1    
    43   20   85 1    
    44   22   23 am   BACKBONE|DICT|INTERRES
    45   22   86 1    
    46   23   24 2    
    47   23   25 1    
    48   25   26 1    
    49   25   27 1    
    50   25   87 1    
    51   26   88 1    
    52   26   89 1    
    53   26   90 1    
    54   27   28 am   BACKBONE|DICT|INTERRES
    55   27   91 1    
    56   28   29 2    
    57   28   30 1    
    58   30   31 1    
    59   30   32 1    
    60   30   92 1    
    61   31   93 1    
    62   31   94 1    
    63   31   95 1    
    64   32   33 am   BACKBONE|DICT|INTERRES
    65   32   96 1    
    66   33   34 2    
    67   33   35 1    
    68   35   36 1    
    69   35   37 1    
    70   35   97 1    
    71   36   98 1    
    72   36   99 1    
    73   36  100 1    
    74   37   38 am   BACKBONE|DICT|INTERRES
    75   37  101 1    
    76   38   39 2    
    77   38   40 1    
    78   40   41 1    
    79   40   42 1    
    80   40  102 1    
    81   41  103 1    
    82   41  104 1    
    83   41  105 1    
    84   42   43 am   BACKBONE|DICT|INTERRES
    85   42  106 1    
    86   43   44 2    
    87   43   45 1    
    88   45   46 1    
    89   45   49 1    
    90   45  107 1    
    91   46   47 1    
    92   46  108 1    
    93   46  109 1    
    94   47   48 1    
    95   48  110 1    
    96   48  111 1    
    97   49   50 am   BACKBONE|DICT|INTERRES
    98   49  112 1    
    99   50   51 2    
   100   50   52 1    
   101   52   53 1    
   102   52   54 1    
   103   52  113 1    
   104   53  114 1    
   105   53  115 1    
   106   53  116 1    
   107   54   55 am   BACKBONE|DICT|INTERRES
   108   54  117 1    
   109   55   56 2    
   110   55   57 1    
   111   57   58 1    
   112   57   59 1    
   113   57  118 1    
   114   58  119 1    
   115   58  120 1    
   116   58  121 1    
   117   59   60 am   BACKBONE|DICT|INTERRES
   118   59  122 1    
   119   60   61 2    
   120   60   62 1    
   121   62   63 1    
   122   62   64 1    
   123   62  123 1    
   124   63  124 1    
   125   63  125 1    
   126   63  126 1    
   127   64   65 am   BACKBONE|DICT|INTERRES
   128   64  127 1    
   129   65   66 2    
@<TRIPOS>SUBSTRUCTURE
     1 UNK         1 GROUP             0       ****    0 ROOT    
