@<TRIPOS>MOLECULE
3R135
127   129    1
SMALL
USER_CHARGES


@<TRIPOS>ATOM
      1 CA        -82.4461   23.6554  -74.5193 C.3       0 UNK        -0.1998 
      2 C         -82.0875   25.1282  -74.6394 C.2       0 UNK         0.4909 
      3 O         -82.2246   25.7026  -75.7207 O.2       0 UNK        -0.5240 
      4 N         -81.6256   25.7441  -73.5406 N.am      1 UNK        -0.4739 
      5 CA        -81.1897   27.1446  -73.4803 C.3       1 UNK         0.0864 
      6 C6        -80.8097   27.5638  -72.0392 C.3       11 UNK        -0.0881 
      7 S7        -80.8202   29.3767  -71.8238 S.3       11 UNK        -0.2682 
      8 C8        -80.2180   29.5589  -70.1138 C.3       11 UNK         0.0289 
      9 C9        -78.7402   29.2163  -69.9816 C.ar      11 UNK        -0.0687 
     10 C10       -78.3522   27.9386  -69.5730 C.ar      11 UNK        -0.0823 
     11 C11       -77.0000   27.6112  -69.4594 C.ar      11 UNK        -0.0830 
     12 C12       -76.0294   28.5782  -69.7411 C.ar      11 UNK        -0.1021 
     13 C13       -76.3980   29.8637  -70.1495 C.ar      11 UNK        -0.0753 
     14 C14       -77.7607   30.1768  -70.2563 C.ar      11 UNK        -0.0933 
     15 C15       -75.3059   30.9025  -70.4106 C.3       11 UNK         0.0166 
     16 S16       -75.6948   32.1242  -71.7130 S.3       11 UNK        -0.2615 
     17 C17       -75.0856   31.4390  -73.3008 C.3       11 UNK        -0.0865 
     18 CA        -75.0940   29.8945  -73.5209 C.3       10 UNK         0.0862 
     19 C         -76.5076   29.2729  -73.7133 C.2       10 UNK         0.5551 
     20 N         -76.5741   28.0025  -74.0911 N.am      10 UNK        -0.7319 
     21 O         -77.5318   29.9303  -73.5605 O.2       10 UNK        -0.5018 
     22 N         -74.1768   29.4758  -74.5986 N.am      10 UNK        -0.4509 
     23 C         -74.2725   29.8493  -75.8850 C.2       10 UNK         0.4899 
     24 O         -75.0509   30.7063  -76.3034 O.2       10 UNK        -0.4839 
     25 CA        -73.3783   29.1145  -76.8876 C.3       9 UNK         0.0222 
     26 CB        -71.8915   29.1505  -76.4980 C.3       9 UNK        -0.1966 
     27 N         -73.8448   27.7335  -77.0131 N.am      9 UNK        -0.4218 
     28 C         -74.3966   27.2180  -78.1195 C.2       9 UNK         0.5020 
     29 O         -74.4733   27.8200  -79.1936 O.2       9 UNK        -0.5274 
     30 CA        -74.9419   25.7808  -78.0010 C.3       8 UNK         0.0270 
     31 CB        -75.5056   25.2324  -79.3301 C.3       8 UNK        -0.1976 
     32 N         -73.9634   24.8506  -77.4296 N.am      8 UNK        -0.4313 
     33 C         -72.7525   24.5420  -77.9180 C.2       8 UNK         0.5041 
     34 O         -72.2920   24.9832  -78.9731 O.2       8 UNK        -0.5577 
     35 CA        -71.9176   23.5769  -77.0557 C.3       7 UNK         0.0284 
     36 CB        -70.5237   23.2769  -77.6493 C.3       7 UNK        -0.1958 
     37 N         -71.8095   24.0428  -75.6683 N.am      7 UNK        -0.4454 
     38 C         -71.2711   25.1927  -75.2308 C.2       7 UNK         0.5089 
     39 O         -70.7138   26.0205  -75.9512 O.2       7 UNK        -0.5125 
     40 CA        -71.3944   25.4439  -73.7148 C.3       6 UNK         0.0408 
     41 CB        -71.0323   26.8790  -73.2798 C.3       6 UNK        -0.1791 
     42 N         -72.7029   25.0566  -73.1761 N.am      6 UNK        -0.4762 
     43 C         -73.9078   25.5164  -73.5487 C.2       6 UNK         0.5007 
     44 O         -74.0970   26.3866  -74.4066 O.2       6 UNK        -0.5032 
     45 CA        -75.0989   24.9141  -72.7812 C.3       5 UNK         0.0783 
     46 C46       -75.4134   25.7869  -71.5478 C.3       11 UNK        -0.0857 
     47 S47       -76.6797   25.0556  -70.4620 S.3       11 UNK        -0.2512 
     48 C48       -76.5935   26.2032  -69.0511 C.3       11 UNK         0.0225 
     49 N         -76.2890   24.6792  -73.6068 N.am      5 UNK        -0.4615 
     50 C         -76.3441   23.9094  -74.7013 C.2       4 UNK         0.5053 
     51 O         -75.3523   23.4917  -75.3027 O.2       4 UNK        -0.5105 
     52 CA        -77.7409   23.4608  -75.1552 C.3       4 UNK         0.0263 
     53 CB        -78.7069   23.2264  -73.9753 C.3       4 UNK        -0.1981 
     54 N         -78.3372   24.4208  -76.0822 N.am      4 UNK        -0.4224 
     55 C         -78.5537   24.1840  -77.3850 C.2       3 UNK         0.4895 
     56 O         -78.1852   23.1578  -77.9580 O.2       3 UNK        -0.5091 
     57 CA        -79.3452   25.2254  -78.2010 C.3       3 UNK         0.0250 
     58 CB        -80.6663   24.6207  -78.7074 C.3       3 UNK        -0.1996 
     59 N         -79.6482   26.4455  -77.4519 N.am      3 UNK        -0.4254 
     60 C         -78.8347   27.5077  -77.3728 C.2       2 UNK         0.5004 
     61 O         -77.7662   27.5913  -77.9739 O.2       2 UNK        -0.5226 
     62 CA        -79.2698   28.6750  -76.4667 C.3       2 UNK         0.0269 
     63 CB        -79.8632   29.8144  -77.3105 C.3       2 UNK        -0.1926 
     64 N         -80.2241   28.3172  -75.4104 N.am      2 UNK        -0.4687 
     65 C         -80.0285   27.3892  -74.4636 C.2       1 UNK         0.5165 
     66 O         -79.0105   26.6965  -74.3794 O.2       1 UNK        -0.5079 
     67 H67       -81.9269   23.0804  -75.2853 H         1 UNK         0.0900 
     68 H68       -82.1749   23.2473  -73.5461 H         1 UNK         0.0900 
     69 H69       -83.5177   23.5190  -74.6599 H         1 UNK         0.0900 
     70 H70       -81.5191   25.2153  -72.6872 H         1 UNK         0.2959 
     71 H71       -82.0472   27.7434  -73.7957 H         1 UNK         0.1079 
     72 H72       -79.8340   27.1594  -71.7645 H         1 UNK         0.0837 
     73 H73       -81.5240   27.1497  -71.3258 H         1 UNK         0.0837 
     74 H74       -80.8186   28.9366  -69.4487 H         1 UNK         0.0685 
     75 H75       -80.3821   30.5890  -69.7943 H         1 UNK         0.0685 
     76 H76       -79.1030   27.1902  -69.3594 H         1 UNK         0.1434 
     77 H77       -74.9820   28.3259  -69.6467 H         1 UNK         0.1329 
     78 H78       -78.0664   31.1668  -70.5637 H         1 UNK         0.1335 
     79 H79       -75.1553   31.4518  -69.4807 H         1 UNK         0.0680 
     80 H80       -74.3487   30.4285  -70.6304 H         1 UNK         0.0680 
     81 H81       -75.6512   31.9280  -74.0935 H         1 UNK         0.1032 
     82 H82       -74.0656   31.8046  -73.4138 H         1 UNK         0.1032 
     83 H83       -74.6938   29.4231  -72.6254 H         1 UNK         0.0461 
     84 H84       -75.7323   27.4624  -74.2454 H         1 UNK         0.3453 
     85 H85       -77.4852   27.5665  -74.2017 H         1 UNK         0.3453 
     86 H86       -73.5518   28.7183  -74.3645 H         1 UNK         0.2984 
     87 H87       -73.4707   29.6403  -77.8398 H         1 UNK         0.0554 
     88 H88       -71.5499   30.1754  -76.3491 H         1 UNK         0.0847 
     89 H89       -71.2737   28.7128  -77.2824 H         1 UNK         0.0847 
     90 H90       -71.6880   28.5998  -75.5836 H         1 UNK         0.0847 
     91 H91       -73.8501   27.1732  -76.1645 H         1 UNK         0.3141 
     92 H92       -75.7667   25.8267  -77.2883 H         1 UNK         0.0743 
     93 H93       -76.3135   25.8656  -79.6980 H         1 UNK         0.0784 
     94 H94       -75.9101   24.2284  -79.2053 H         1 UNK         0.0784 
     95 H95       -74.7443   25.1931  -80.1095 H         1 UNK         0.0784 
     96 H96       -74.2560   24.4073  -76.5608 H         1 UNK         0.3213 
     97 H97       -72.4706   22.6364  -77.0263 H         1 UNK         0.0855 
     98 H98       -69.9209   24.1798  -77.7505 H         1 UNK         0.0814 
     99 H99       -70.6117   22.8345  -78.6423 H         1 UNK         0.0814 
    100 H100      -69.9710   22.5719  -77.0287 H         1 UNK         0.0814 
    101 H101      -72.2595   23.4567  -74.9787 H         1 UNK         0.3105 
    102 H102      -70.6636   24.7779  -73.2540 H         1 UNK         0.0547 
    103 H103      -70.9404   26.9446  -72.1961 H         1 UNK         0.0837 
    104 H104      -71.7856   27.6013  -73.5854 H         1 UNK         0.0837 
    105 H105      -70.0771   27.1961  -73.7002 H         1 UNK         0.0837 
    106 H106      -72.6677   24.3531  -72.4504 H         1 UNK         0.3020 
    107 H107      -74.7923   23.9287  -72.4233 H         1 UNK         0.1245 
    108 H108      -75.7549   26.7738  -71.8596 H         1 UNK         0.0781 
    109 H109      -74.5139   25.9471  -70.9496 H         1 UNK         0.0781 
    110 H110      -75.5852   26.1965  -68.6341 H         1 UNK         0.0836 
    111 H111      -77.2526   25.8441  -68.2594 H         1 UNK         0.0836 
    112 H112      -77.1583   25.0058  -73.2098 H         1 UNK         0.3022 
    113 H113      -77.6028   22.4936  -75.6429 H         1 UNK         0.0747 
    114 H114      -79.6130   22.7251  -74.3131 H         1 UNK         0.0793 
    115 H115      -78.2543   22.5863  -73.2165 H         1 UNK         0.0793 
    116 H116      -79.0060   24.1546  -73.4881 H         1 UNK         0.0793 
    117 H117      -78.6273   25.3075  -75.6791 H         1 UNK         0.3047 
    118 H118      -78.7388   25.4798  -79.0728 H         1 UNK         0.0822 
    119 H119      -81.2260   25.3364  -79.3098 H         1 UNK         0.0807 
    120 H120      -81.3065   24.3019  -77.8841 H         1 UNK         0.0807 
    121 H121      -80.4832   23.7466  -79.3338 H         1 UNK         0.0807 
    122 H122      -80.5080   26.4459  -76.9140 H         1 UNK         0.2946 
    123 H123      -78.3666   29.0501  -75.9842 H         1 UNK         0.1144 
    124 H124      -80.0728   30.6928  -76.6997 H         1 UNK         0.0793 
    125 H125      -80.7899   29.5134  -77.8007 H         1 UNK         0.0793 
    126 H126      -79.1668   30.1252  -78.0908 H         1 UNK         0.0793 
    127 H127      -81.0979   28.8233  -75.4135 H         1 UNK         0.2896 
@<TRIPOS>BOND
     1    1    2 1    
     2    1   67 1    
     3    1   68 1    
     4    1   69 1    
     5    2    3 2    
     6    2    4 am   BACKBONE|DICT|INTERRES
     7    4    5 1    
     8    4   70 1    
     9    5    6 1    
    10    5   65 1    
    11    5   71 1    
    12    6    7 1    
    13    6   72 1    
    14    6   73 1    
    15    7    8 1    
    16    8    9 1    
    17    8   74 1    
    18    8   75 1    
    19    9   10 ar   
    20    9   14 ar   
    21   10   11 ar   
    22   10   76 1    
    23   11   12 ar   
    24   11   48 1    
    25   12   13 ar   
    26   12   77 1    
    27   13   14 ar   
    28   13   15 1    
    29   14   78 1    
    30   15   16 1    
    31   15   79 1    
    32   15   80 1    
    33   16   17 1    
    34   17   18 1    
    35   17   81 1    
    36   17   82 1    
    37   18   19 1    
    38   18   22 1    
    39   18   83 1    
    40   19   20 am   BACKBONE|DICT|INTERRES
    41   19   21 2    
    42   20   84 1    
    43   20   85 1    
    44   22   23 am   BACKBONE|DICT|INTERRES
    45   22   86 1    
    46   23   24 2    
    47   23   25 1    
    48   25   26 1    
    49   25   27 1    
    50   25   87 1    
    51   26   88 1    
    52   26   89 1    
    53   26   90 1    
    54   27   28 am   BACKBONE|DICT|INTERRES
    55   27   91 1    
    56   28   29 2    
    57   28   30 1    
    58   30   31 1    
    59   30   32 1    
    60   30   92 1    
    61   31   93 1    
    62   31   94 1    
    63   31   95 1    
    64   32   33 am   BACKBONE|DICT|INTERRES
    65   32   96 1    
    66   33   34 2    
    67   33   35 1    
    68   35   36 1    
    69   35   37 1    
    70   35   97 1    
    71   36   98 1    
    72   36   99 1    
    73   36  100 1    
    74   37   38 am   BACKBONE|DICT|INTERRES
    75   37  101 1    
    76   38   39 2    
    77   38   40 1    
    78   40   41 1    
    79   40   42 1    
    80   40  102 1    
    81   41  103 1    
    82   41  104 1    
    83   41  105 1    
    84   42   43 am   BACKBONE|DICT|INTERRES
    85   42  106 1    
    86   43   44 2    
    87   43   45 1    
    88   45   46 1    
    89   45   49 1    
    90   45  107 1    
    91   46   47 1    
    92   46  108 1    
    93   46  109 1    
    94   47   48 1    
    95   48  110 1    
    96   48  111 1    
    97   49   50 am   BACKBONE|DICT|INTERRES
    98   49  112 1    
    99   50   51 2    
   100   50   52 1    
   101   52   53 1    
   102   52   54 1    
   103   52  113 1    
   104   53  114 1    
   105   53  115 1    
   106   53  116 1    
   107   54   55 am   BACKBONE|DICT|INTERRES
   108   54  117 1    
   109   55   56 2    
   110   55   57 1    
   111   57   58 1    
   112   57   59 1    
   113   57  118 1    
   114   58  119 1    
   115   58  120 1    
   116   58  121 1    
   117   59   60 am   BACKBONE|DICT|INTERRES
   118   59  122 1    
   119   60   61 2    
   120   60   62 1    
   121   62   63 1    
   122   62   64 1    
   123   62  123 1    
   124   63  124 1    
   125   63  125 1    
   126   63  126 1    
   127   64   65 am   BACKBONE|DICT|INTERRES
   128   64  127 1    
   129   65   66 2    
@<TRIPOS>SUBSTRUCTURE
     1 UNK         1 GROUP             0       ****    0 ROOT    
