@<TRIPOS>MOLECULE
3R135
127   129    1
SMALL
USER_CHARGES


@<TRIPOS>ATOM
      1 CA        -85.2605   30.0828  -75.4378 C.3       0 UNK        -0.1998 
      2 C         -83.9041   29.3973  -75.5093 C.2       0 UNK         0.4909 
      3 O         -83.5440   28.8587  -76.5570 O.2       0 UNK        -0.5240 
      4 N         -83.1456   29.4218  -74.4068 N.am      1 UNK        -0.4739 
      5 CA        -81.8498   28.7503  -74.2643 C.3       1 UNK         0.0864 
      6 C6        -81.0099   29.3685  -73.1169 C.3       11 UNK        -0.0881 
      7 S7        -81.8436   29.3722  -71.4905 S.3       11 UNK        -0.2682 
      8 C8        -80.6058   30.2346  -70.4603 C.3       11 UNK         0.0289 
      9 C9        -79.2546   29.5260  -70.3637 C.ar      11 UNK        -0.0687 
     10 C10       -79.1592   28.1296  -70.3443 C.ar      11 UNK        -0.0823 
     11 C11       -77.9168   27.4960  -70.2611 C.ar      11 UNK        -0.0830 
     12 C12       -76.7587   28.2741  -70.1509 C.ar      11 UNK        -0.1021 
     13 C13       -76.8345   29.6687  -70.1764 C.ar      11 UNK        -0.0753 
     14 C14       -78.0846   30.2873  -70.2762 C.ar      11 UNK        -0.0933 
     15 C15       -75.5675   30.5087  -70.0951 C.3       11 UNK         0.0166 
     16 S16       -75.2076   31.3499  -71.6699 S.3       11 UNK        -0.2615 
     17 C17       -74.6657   29.9715  -72.7382 C.3       11 UNK        -0.0865 
     18 CA        -73.1616   30.0784  -73.1068 C.3       10 UNK         0.0862 
     19 C         -72.2596   29.3785  -72.0567 C.2       10 UNK         0.5551 
     20 N         -71.7079   30.1274  -71.1120 N.am      10 UNK        -0.7319 
     21 O         -72.0931   28.1606  -72.0672 O.2       10 UNK        -0.5018 
     22 N         -72.9119   29.5601  -74.4567 N.am      10 UNK        -0.4509 
     23 C         -71.9058   29.9517  -75.2476 C.2       10 UNK         0.4899 
     24 O         -71.0972   30.8317  -74.9458 O.2       10 UNK        -0.4839 
     25 CA        -71.8071   29.2431  -76.6111 C.3       9 UNK         0.0222 
     26 CB        -70.6190   29.7262  -77.4704 C.3       9 UNK        -0.1966 
     27 N         -71.8061   27.7838  -76.4771 N.am      9 UNK        -0.4218 
     28 C         -70.8972   27.0138  -75.8587 C.2       9 UNK         0.5020 
     29 O         -69.8650   27.4455  -75.3429 O.2       9 UNK        -0.5274 
     30 CA        -71.1772   25.4986  -75.7894 C.3       8 UNK         0.0270 
     31 CB        -71.5090   25.0888  -74.3450 C.3       8 UNK        -0.1976 
     32 N         -72.2564   25.0482  -76.6755 N.am      8 UNK        -0.4313 
     33 C         -72.1721   24.9682  -78.0109 C.2       8 UNK         0.5041 
     34 O         -71.1420   25.1960  -78.6461 O.2       8 UNK        -0.5577 
     35 CA        -73.4644   24.6162  -78.7701 C.3       7 UNK         0.0284 
     36 CB        -73.6737   23.0943  -78.8175 C.3       7 UNK        -0.1958 
     37 N         -74.6557   25.2667  -78.2117 N.am      7 UNK        -0.4454 
     38 C         -74.8550   26.5938  -78.1825 C.2       7 UNK         0.5089 
     39 O         -74.0695   27.4148  -78.6547 O.2       7 UNK        -0.5125 
     40 CA        -76.1104   27.0975  -77.4511 C.3       6 UNK         0.0408 
     41 CB        -77.3638   26.9343  -78.3244 C.3       6 UNK        -0.1791 
     42 N         -76.3039   26.4212  -76.1684 N.am      6 UNK        -0.4762 
     43 C         -75.4760   26.5266  -75.1198 C.2       6 UNK         0.5007 
     44 O         -74.5181   27.2991  -75.0875 O.2       6 UNK        -0.5032 
     45 CA        -75.7150   25.5787  -73.9302 C.3       5 UNK         0.0783 
     46 C46       -76.6430   26.2014  -72.8660 C.3       11 UNK        -0.0857 
     47 S47       -76.4877   25.2935  -71.2894 S.3       11 UNK        -0.2512 
     48 C48       -77.8555   25.9714  -70.2894 C.3       11 UNK         0.0225 
     49 N         -76.1924   24.2648  -74.3662 N.am      5 UNK        -0.4615 
     50 C         -75.4362   23.3560  -74.9917 C.2       4 UNK         0.5053 
     51 O         -74.2519   23.5303  -75.2731 O.2       4 UNK        -0.5105 
     52 CA        -76.1308   22.0481  -75.4015 C.3       4 UNK         0.0263 
     53 CB        -76.1960   21.0750  -74.2138 C.3       4 UNK        -0.1981 
     54 N         -77.4781   22.2711  -75.9324 N.am      4 UNK        -0.4224 
     55 C         -77.7353   22.9163  -77.0788 C.2       3 UNK         0.4895 
     56 O         -76.8642   23.3696  -77.8215 O.2       3 UNK        -0.5091 
     57 CA        -79.2162   23.1288  -77.4347 C.3       3 UNK         0.0250 
     58 CB        -79.8077   21.8614  -78.0726 C.3       3 UNK        -0.1996 
     59 N         -80.0529   23.5521  -76.3034 N.am      3 UNK        -0.4254 
     60 C         -79.8556   24.6698  -75.5912 C.2       2 UNK         0.5004 
     61 O         -78.8826   25.4130  -75.7350 O.2       2 UNK        -0.5226 
     62 CA        -80.9012   25.0261  -74.5317 C.3       2 UNK         0.0269 
     63 CB        -80.5328   24.4232  -73.1649 C.3       2 UNK        -0.1926 
     64 N         -80.9415   26.4835  -74.4452 N.am      2 UNK        -0.4687 
     65 C         -82.0111   27.2181  -74.1254 C.2       1 UNK         0.5165 
     66 O         -83.0793   26.7316  -73.7419 O.2       1 UNK        -0.5079 
     67 H67       -85.3220   30.8728  -76.1858 H         1 UNK         0.0900 
     68 H68       -85.4411   30.5275  -74.4593 H         1 UNK         0.0900 
     69 H69       -86.0547   29.3633  -75.6350 H         1 UNK         0.0900 
     70 H70       -83.5016   29.8439  -73.5607 H         1 UNK         0.2959 
     71 H71       -81.2977   28.9192  -75.1921 H         1 UNK         0.1079 
     72 H72       -80.7634   30.4011  -73.3691 H         1 UNK         0.0837 
     73 H73       -80.0512   28.8543  -73.0274 H         1 UNK         0.0837 
     74 H74       -80.4765   31.2436  -70.8552 H         1 UNK         0.0685 
     75 H75       -81.0094   30.3462  -69.4533 H         1 UNK         0.0685 
     76 H76       -80.0568   27.5300  -70.4059 H         1 UNK         0.1434 
     77 H77       -75.7938   27.7925  -70.0701 H         1 UNK         0.1329 
     78 H78       -78.1418   31.3673  -70.2912 H         1 UNK         0.1335 
     79 H79       -74.7086   29.9015  -69.8040 H         1 UNK         0.0680 
     80 H80       -75.6888   31.2612  -69.3146 H         1 UNK         0.0680 
     81 H81       -74.8993   29.0085  -72.2828 H         1 UNK         0.1032 
     82 H82       -75.2807   30.0219  -73.6384 H         1 UNK         0.1032 
     83 H83       -72.8969   31.1381  -73.1269 H         1 UNK         0.0461 
     84 H84       -71.8579   31.1240  -71.0872 H         1 UNK         0.3453 
     85 H85       -71.1302   29.6888  -70.4124 H         1 UNK         0.3453 
     86 H86       -73.4851   28.7693  -74.7455 H         1 UNK         0.2984 
     87 H87       -72.7214   29.4938  -77.1510 H         1 UNK         0.0554 
     88 H88       -70.5987   29.2217  -78.4364 H         1 UNK         0.0847 
     89 H89       -69.6613   29.5506  -76.9797 H         1 UNK         0.0847 
     90 H90       -70.6905   30.7969  -77.6655 H         1 UNK         0.0847 
     91 H91       -72.6241   27.3221  -76.8542 H         1 UNK         0.3141 
     92 H92       -70.2606   24.9853  -76.0871 H         1 UNK         0.0743 
     93 H93       -72.4010   25.5982  -73.9801 H         1 UNK         0.0784 
     94 H94       -71.6740   24.0144  -74.2613 H         1 UNK         0.0784 
     95 H95       -70.6926   25.3451  -73.6684 H         1 UNK         0.0784 
     96 H96       -73.1150   24.7389  -76.2253 H         1 UNK         0.3213 
     97 H97       -73.3479   24.9727  -79.7958 H         1 UNK         0.0855 
     98 H98       -73.8216   22.6740  -77.8228 H         1 UNK         0.0814 
     99 H99       -72.8094   22.5952  -79.2577 H         1 UNK         0.0814 
    100 H100      -74.5420   22.8326  -79.4224 H         1 UNK         0.0814 
    101 H101      -75.3821   24.6561  -77.8463 H         1 UNK         0.3105 
    102 H102      -75.9764   28.1624  -77.2496 H         1 UNK         0.0547 
    103 H103      -77.5669   25.8881  -78.5530 H         1 UNK         0.0837 
    104 H104      -78.2455   27.3435  -77.8310 H         1 UNK         0.0837 
    105 H105      -77.2489   27.4596  -79.2733 H         1 UNK         0.0837 
    106 H106      -77.1275   25.8280  -76.0824 H         1 UNK         0.3020 
    107 H107      -74.7346   25.4350  -73.4700 H         1 UNK         0.1245 
    108 H108      -76.3766   27.2430  -72.6867 H         1 UNK         0.0781 
    109 H109      -77.6822   26.2040  -73.1985 H         1 UNK         0.0781 
    110 H110      -78.7908   25.5596  -70.6705 H         1 UNK         0.0836 
    111 H111      -77.7550   25.6065  -69.2666 H         1 UNK         0.0836 
    112 H112      -77.1665   24.0622  -74.2026 H         1 UNK         0.3022 
    113 H113      -75.5303   21.5866  -76.1883 H         1 UNK         0.0747 
    114 H114      -76.6153   20.1136  -74.5112 H         1 UNK         0.0793 
    115 H115      -75.1992   20.8820  -73.8144 H         1 UNK         0.0793 
    116 H116      -76.8029   21.4690  -73.3975 H         1 UNK         0.0793 
    117 H117      -78.2550   21.9328  -75.3836 H         1 UNK         0.3047 
    118 H118      -79.2538   23.9275  -78.1787 H         1 UNK         0.0822 
    119 H119      -80.8187   22.0370  -78.4407 H         1 UNK         0.0807 
    120 H120      -79.8465   21.0308  -77.3667 H         1 UNK         0.0807 
    121 H121      -79.2080   21.5372  -78.9245 H         1 UNK         0.0807 
    122 H122      -80.8683   22.9877  -76.1104 H         1 UNK         0.2946 
    123 H123      -81.8757   24.6509  -74.8537 H         1 UNK         0.1144 
    124 H124      -81.2505   24.7128  -72.3972 H         1 UNK         0.0793 
    125 H125      -79.5448   24.7434  -72.8358 H         1 UNK         0.0793 
    126 H126      -80.5258   23.3334  -73.2069 H         1 UNK         0.0793 
    127 H127      -80.1006   26.9301  -74.7912 H         1 UNK         0.2896 
@<TRIPOS>BOND
     1    1    2 1    
     2    1   67 1    
     3    1   68 1    
     4    1   69 1    
     5    2    3 2    
     6    2    4 am   BACKBONE|DICT|INTERRES
     7    4    5 1    
     8    4   70 1    
     9    5    6 1    
    10    5   65 1    
    11    5   71 1    
    12    6    7 1    
    13    6   72 1    
    14    6   73 1    
    15    7    8 1    
    16    8    9 1    
    17    8   74 1    
    18    8   75 1    
    19    9   10 ar   
    20    9   14 ar   
    21   10   11 ar   
    22   10   76 1    
    23   11   12 ar   
    24   11   48 1    
    25   12   13 ar   
    26   12   77 1    
    27   13   14 ar   
    28   13   15 1    
    29   14   78 1    
    30   15   16 1    
    31   15   79 1    
    32   15   80 1    
    33   16   17 1    
    34   17   18 1    
    35   17   81 1    
    36   17   82 1    
    37   18   19 1    
    38   18   22 1    
    39   18   83 1    
    40   19   20 am   BACKBONE|DICT|INTERRES
    41   19   21 2    
    42   20   84 1    
    43   20   85 1    
    44   22   23 am   BACKBONE|DICT|INTERRES
    45   22   86 1    
    46   23   24 2    
    47   23   25 1    
    48   25   26 1    
    49   25   27 1    
    50   25   87 1    
    51   26   88 1    
    52   26   89 1    
    53   26   90 1    
    54   27   28 am   BACKBONE|DICT|INTERRES
    55   27   91 1    
    56   28   29 2    
    57   28   30 1    
    58   30   31 1    
    59   30   32 1    
    60   30   92 1    
    61   31   93 1    
    62   31   94 1    
    63   31   95 1    
    64   32   33 am   BACKBONE|DICT|INTERRES
    65   32   96 1    
    66   33   34 2    
    67   33   35 1    
    68   35   36 1    
    69   35   37 1    
    70   35   97 1    
    71   36   98 1    
    72   36   99 1    
    73   36  100 1    
    74   37   38 am   BACKBONE|DICT|INTERRES
    75   37  101 1    
    76   38   39 2    
    77   38   40 1    
    78   40   41 1    
    79   40   42 1    
    80   40  102 1    
    81   41  103 1    
    82   41  104 1    
    83   41  105 1    
    84   42   43 am   BACKBONE|DICT|INTERRES
    85   42  106 1    
    86   43   44 2    
    87   43   45 1    
    88   45   46 1    
    89   45   49 1    
    90   45  107 1    
    91   46   47 1    
    92   46  108 1    
    93   46  109 1    
    94   47   48 1    
    95   48  110 1    
    96   48  111 1    
    97   49   50 am   BACKBONE|DICT|INTERRES
    98   49  112 1    
    99   50   51 2    
   100   50   52 1    
   101   52   53 1    
   102   52   54 1    
   103   52  113 1    
   104   53  114 1    
   105   53  115 1    
   106   53  116 1    
   107   54   55 am   BACKBONE|DICT|INTERRES
   108   54  117 1    
   109   55   56 2    
   110   55   57 1    
   111   57   58 1    
   112   57   59 1    
   113   57  118 1    
   114   58  119 1    
   115   58  120 1    
   116   58  121 1    
   117   59   60 am   BACKBONE|DICT|INTERRES
   118   59  122 1    
   119   60   61 2    
   120   60   62 1    
   121   62   63 1    
   122   62   64 1    
   123   62  123 1    
   124   63  124 1    
   125   63  125 1    
   126   63  126 1    
   127   64   65 am   BACKBONE|DICT|INTERRES
   128   64  127 1    
   129   65   66 2    
@<TRIPOS>SUBSTRUCTURE
     1 UNK         1 GROUP             0       ****    0 ROOT    
