@<TRIPOS>MOLECULE
3R135
127   129    1
SMALL
USER_CHARGES


@<TRIPOS>ATOM
      1 CA        -85.9040   29.0608  -72.0887 C.3       0 UNK        -0.1998 
      2 C         -84.6209   29.3269  -72.8618 C.2       0 UNK         0.4909 
      3 O         -84.3307   30.4785  -73.1885 O.2       0 UNK        -0.5240 
      4 N         -83.8545   28.2728  -73.1576 N.am      1 UNK        -0.4739 
      5 CA        -82.5894   28.3384  -73.8871 C.3       1 UNK         0.0864 
      6 C6        -81.3832   28.8002  -73.0205 C.3       11 UNK        -0.0881 
      7 S7        -81.2047   27.9646  -71.4009 S.3       11 UNK        -0.2682 
      8 C8        -79.9944   29.0510  -70.5804 C.3       11 UNK         0.0289 
      9 C9        -78.6295   28.9548  -71.2444 C.ar      11 UNK        -0.0687 
     10 C10       -77.7386   27.9458  -70.8743 C.ar      11 UNK        -0.0823 
     11 C11       -76.5096   27.8101  -71.5271 C.ar      11 UNK        -0.0830 
     12 C12       -76.1738   28.7046  -72.5493 C.ar      11 UNK        -0.1021 
     13 C13       -77.0387   29.7505  -72.9041 C.ar      11 UNK        -0.0753 
     14 C14       -78.2641   29.8627  -72.2413 C.ar      11 UNK        -0.0933 
     15 C15       -76.7267   30.7795  -73.9956 C.3       11 UNK         0.0166 
     16 S16       -75.0736   30.6885  -74.7636 S.3       11 UNK        -0.2615 
     17 C17       -73.9795   31.2115  -73.3944 C.3       11 UNK        -0.0865 
     18 CA        -72.6301   31.8116  -73.8908 C.3       10 UNK         0.0862 
     19 C         -71.7297   32.3011  -72.7160 C.2       10 UNK         0.5551 
     20 N         -70.4107   32.1767  -72.7984 N.am      10 UNK        -0.7319 
     21 O         -72.2298   32.8334  -71.7278 O.2       10 UNK        -0.5018 
     22 N         -71.9472   30.9633  -74.8876 N.am      10 UNK        -0.4509 
     23 C         -71.5359   29.7014  -74.7096 C.2       10 UNK         0.4899 
     24 O         -71.5962   29.0983  -73.6364 O.2       10 UNK        -0.4839 
     25 CA        -70.9775   29.0194  -75.9692 C.3       9 UNK         0.0222 
     26 CB        -69.5240   29.4469  -76.2618 C.3       9 UNK        -0.1966 
     27 N         -71.1482   27.5618  -75.9411 N.am      9 UNK        -0.4218 
     28 C         -70.4423   26.6316  -75.2764 C.2       9 UNK         0.5020 
     29 O         -69.4263   26.8698  -74.6209 O.2       9 UNK        -0.5274 
     30 CA        -70.9383   25.1712  -75.3495 C.3       8 UNK         0.0270 
     31 CB        -71.2019   24.6094  -73.9410 C.3       8 UNK        -0.1976 
     32 N         -72.1461   25.0097  -76.1667 N.am      8 UNK        -0.4313 
     33 C         -72.1464   24.8759  -77.5021 C.2       8 UNK         0.5041 
     34 O         -71.1165   24.7981  -78.1731 O.2       8 UNK        -0.5577 
     35 CA        -73.5061   24.8469  -78.2311 C.3       7 UNK         0.0284 
     36 CB        -73.8836   23.4012  -78.5932 C.3       7 UNK        -0.1958 
     37 N         -74.6141   25.4605  -77.4925 N.am      7 UNK        -0.4454 
     38 C         -74.6653   26.7307  -77.0671 C.2       7 UNK         0.5089 
     39 O         -73.7947   27.5661  -77.3112 O.2       7 UNK        -0.5125 
     40 CA        -75.8429   27.1107  -76.1500 C.3       6 UNK         0.0408 
     41 CB        -77.0210   27.6595  -76.9662 C.3       6 UNK        -0.1791 
     42 N         -76.3063   26.0162  -75.2890 N.am      6 UNK        -0.4762 
     43 C         -75.5392   25.3586  -74.4045 C.2       6 UNK         0.5007 
     44 O         -74.3383   25.5756  -74.2489 O.2       6 UNK        -0.5032 
     45 CA        -76.2153   24.2334  -73.6045 C.3       5 UNK         0.0783 
     46 C46       -77.1402   24.7905  -72.4943 C.3       11 UNK        -0.0857 
     47 S47       -76.2735   25.0643  -70.9131 S.3       11 UNK        -0.2512 
     48 C48       -75.5241   26.7176  -71.1231 C.3       11 UNK         0.0225 
     49 N         -76.9295   23.3463  -74.5217 N.am      5 UNK        -0.4615 
     50 C         -76.3418   22.3903  -75.2544 C.2       4 UNK         0.5053 
     51 O         -75.1548   22.0827  -75.1511 O.2       4 UNK        -0.5105 
     52 CA        -77.2164   21.6591  -76.2892 C.3       4 UNK         0.0263 
     53 CB        -77.7678   20.3522  -75.6973 C.3       4 UNK        -0.1981 
     54 N         -78.3292   22.4710  -76.7887 N.am      4 UNK        -0.4224 
     55 C         -78.1922   23.5832  -77.5250 C.2       3 UNK         0.4895 
     56 O         -77.1090   24.0260  -77.9038 O.2       3 UNK        -0.5091 
     57 CA        -79.4791   24.3619  -77.8445 C.3       3 UNK         0.0250 
     58 CB        -80.1284   23.8262  -79.1302 C.3       3 UNK        -0.1996 
     59 N         -80.4601   24.3479  -76.7527 N.am      3 UNK        -0.4254 
     60 C         -80.2451   24.8437  -75.5260 C.2       2 UNK         0.5004 
     61 O         -79.1740   25.3361  -75.1612 O.2       2 UNK        -0.5226 
     62 CA        -81.4024   24.7309  -74.5227 C.3       2 UNK         0.0269 
     63 CB        -81.0403   23.7688  -73.3800 C.3       2 UNK        -0.1926 
     64 N         -81.7322   26.0403  -73.9627 N.am      2 UNK        -0.4687 
     65 C         -82.3831   27.0053  -74.6225 C.2       1 UNK         0.5165 
     66 O         -82.8451   26.8619  -75.7559 O.2       1 UNK        -0.5079 
     67 H67       -86.7663   29.3917  -72.6669 H         1 UNK         0.0900 
     68 H68       -85.8940   29.6086  -71.1468 H         1 UNK         0.0900 
     69 H69       -86.0324   28.0023  -71.8633 H         1 UNK         0.0900 
     70 H70       -84.1449   27.3436  -72.8844 H         1 UNK         0.2959 
     71 H71       -82.7040   29.0784  -74.6833 H         1 UNK         0.1079 
     72 H72       -81.4834   29.8698  -72.8299 H         1 UNK         0.0837 
     73 H73       -80.4535   28.6883  -73.5819 H         1 UNK         0.0837 
     74 H74       -80.3573   30.0800  -70.5893 H         1 UNK         0.0685 
     75 H75       -79.9161   28.7641  -69.5307 H         1 UNK         0.0685 
     76 H76       -78.0130   27.2514  -70.0919 H         1 UNK         0.1434 
     77 H77       -75.2301   28.5776  -73.0591 H         1 UNK         0.1329 
     78 H78       -78.9493   30.6524  -72.5180 H         1 UNK         0.1335 
     79 H79       -77.4646   30.6623  -74.7905 H         1 UNK         0.0680 
     80 H80       -76.8667   31.7841  -73.5937 H         1 UNK         0.0680 
     81 H81       -73.7942   30.3592  -72.7399 H         1 UNK         0.1032 
     82 H82       -74.5139   31.9441  -72.7869 H         1 UNK         0.1032 
     83 H83       -72.8780   32.7246  -74.4333 H         1 UNK         0.0461 
     84 H84       -69.9913   31.7443  -73.6056 H         1 UNK         0.3453 
     85 H85       -69.8331   32.5055  -72.0408 H         1 UNK         0.3453 
     86 H86       -71.8415   31.3795  -75.8015 H         1 UNK         0.2984 
     87 H87       -71.5897   29.3501  -76.8099 H         1 UNK         0.0554 
     88 H88       -69.4686   30.5138  -76.4806 H         1 UNK         0.0847 
     89 H89       -68.8637   29.2619  -75.4142 H         1 UNK         0.0847 
     90 H90       -69.1196   28.9193  -77.1256 H         1 UNK         0.0847 
     91 H91       -71.9885   27.2483  -76.4162 H         1 UNK         0.3141 
     92 H92       -70.1335   24.5818  -75.7939 H         1 UNK         0.0743 
     93 H93       -70.2800   24.5714  -73.3594 H         1 UNK         0.0784 
     94 H94       -71.9064   25.2280  -73.3844 H         1 UNK         0.0784 
     95 H95       -71.6009   23.5957  -73.9818 H         1 UNK         0.0784 
     96 H96       -73.0311   25.0968  -75.6733 H         1 UNK         0.3213 
     97 H97       -73.3839   25.4114  -79.1577 H         1 UNK         0.0855 
     98 H98       -73.0844   22.9153  -79.1546 H         1 UNK         0.0814 
     99 H99       -74.7787   23.3680  -79.2146 H         1 UNK         0.0814 
    100 H100      -74.0705   22.7997  -77.7028 H         1 UNK         0.0814 
    101 H101      -75.4243   24.8716  -77.3197 H         1 UNK         0.3105 
    102 H102      -75.4917   27.9021  -75.4878 H         1 UNK         0.0547 
    103 H103      -76.7173   28.5325  -77.5453 H         1 UNK         0.0837 
    104 H104      -77.4024   26.9182  -77.6678 H         1 UNK         0.0837 
    105 H105      -77.8426   27.9688  -76.3196 H         1 UNK         0.0837 
    106 H106      -77.2942   25.7792  -75.3417 H         1 UNK         0.3020 
    107 H107      -75.4223   23.6495  -73.1302 H         1 UNK         0.1245 
    108 H108      -77.9158   24.0576  -72.2700 H         1 UNK         0.0781 
    109 H109      -77.6789   25.6874  -72.8065 H         1 UNK         0.0781 
    110 H110      -74.7086   26.6451  -71.8432 H         1 UNK         0.0836 
    111 H111      -75.0613   27.0067  -70.1789 H         1 UNK         0.0836 
    112 H112      -77.8935   23.5855  -74.7102 H         1 UNK         0.3022 
    113 H113      -76.5769   21.4093  -77.1387 H         1 UNK         0.0747 
    114 H114      -78.3224   19.7813  -76.4424 H         1 UNK         0.0793 
    115 H115      -76.9581   19.7139  -75.3405 H         1 UNK         0.0793 
    116 H116      -78.4318   20.5388  -74.8523 H         1 UNK         0.0793 
    117 H117      -79.2605   22.1802  -76.5294 H         1 UNK         0.3047 
    118 H118      -79.1976   25.4023  -78.0159 H         1 UNK         0.0822 
    119 H119      -80.9863   24.4316  -79.4237 H         1 UNK         0.0807 
    120 H120      -80.4669   22.7957  -79.0157 H         1 UNK         0.0807 
    121 H121      -79.4216   23.8466  -79.9612 H         1 UNK         0.0807 
    122 H122      -81.3692   23.9653  -76.9712 H         1 UNK         0.2946 
    123 H123      -82.2846   24.3383  -75.0337 H         1 UNK         0.1144 
    124 H124      -81.8873   23.6151  -72.7111 H         1 UNK         0.0793 
    125 H125      -80.2111   24.1474  -72.7826 H         1 UNK         0.0793 
    126 H126      -80.7499   22.7901  -73.7644 H         1 UNK         0.0793 
    127 H127      -81.3619   26.2581  -73.0462 H         1 UNK         0.2896 
@<TRIPOS>BOND
     1    1    2 1    
     2    1   67 1    
     3    1   68 1    
     4    1   69 1    
     5    2    3 2    
     6    2    4 am   BACKBONE|DICT|INTERRES
     7    4    5 1    
     8    4   70 1    
     9    5    6 1    
    10    5   65 1    
    11    5   71 1    
    12    6    7 1    
    13    6   72 1    
    14    6   73 1    
    15    7    8 1    
    16    8    9 1    
    17    8   74 1    
    18    8   75 1    
    19    9   10 ar   
    20    9   14 ar   
    21   10   11 ar   
    22   10   76 1    
    23   11   12 ar   
    24   11   48 1    
    25   12   13 ar   
    26   12   77 1    
    27   13   14 ar   
    28   13   15 1    
    29   14   78 1    
    30   15   16 1    
    31   15   79 1    
    32   15   80 1    
    33   16   17 1    
    34   17   18 1    
    35   17   81 1    
    36   17   82 1    
    37   18   19 1    
    38   18   22 1    
    39   18   83 1    
    40   19   20 am   BACKBONE|DICT|INTERRES
    41   19   21 2    
    42   20   84 1    
    43   20   85 1    
    44   22   23 am   BACKBONE|DICT|INTERRES
    45   22   86 1    
    46   23   24 2    
    47   23   25 1    
    48   25   26 1    
    49   25   27 1    
    50   25   87 1    
    51   26   88 1    
    52   26   89 1    
    53   26   90 1    
    54   27   28 am   BACKBONE|DICT|INTERRES
    55   27   91 1    
    56   28   29 2    
    57   28   30 1    
    58   30   31 1    
    59   30   32 1    
    60   30   92 1    
    61   31   93 1    
    62   31   94 1    
    63   31   95 1    
    64   32   33 am   BACKBONE|DICT|INTERRES
    65   32   96 1    
    66   33   34 2    
    67   33   35 1    
    68   35   36 1    
    69   35   37 1    
    70   35   97 1    
    71   36   98 1    
    72   36   99 1    
    73   36  100 1    
    74   37   38 am   BACKBONE|DICT|INTERRES
    75   37  101 1    
    76   38   39 2    
    77   38   40 1    
    78   40   41 1    
    79   40   42 1    
    80   40  102 1    
    81   41  103 1    
    82   41  104 1    
    83   41  105 1    
    84   42   43 am   BACKBONE|DICT|INTERRES
    85   42  106 1    
    86   43   44 2    
    87   43   45 1    
    88   45   46 1    
    89   45   49 1    
    90   45  107 1    
    91   46   47 1    
    92   46  108 1    
    93   46  109 1    
    94   47   48 1    
    95   48  110 1    
    96   48  111 1    
    97   49   50 am   BACKBONE|DICT|INTERRES
    98   49  112 1    
    99   50   51 2    
   100   50   52 1    
   101   52   53 1    
   102   52   54 1    
   103   52  113 1    
   104   53  114 1    
   105   53  115 1    
   106   53  116 1    
   107   54   55 am   BACKBONE|DICT|INTERRES
   108   54  117 1    
   109   55   56 2    
   110   55   57 1    
   111   57   58 1    
   112   57   59 1    
   113   57  118 1    
   114   58  119 1    
   115   58  120 1    
   116   58  121 1    
   117   59   60 am   BACKBONE|DICT|INTERRES
   118   59  122 1    
   119   60   61 2    
   120   60   62 1    
   121   62   63 1    
   122   62   64 1    
   123   62  123 1    
   124   63  124 1    
   125   63  125 1    
   126   63  126 1    
   127   64   65 am   BACKBONE|DICT|INTERRES
   128   64  127 1    
   129   65   66 2    
@<TRIPOS>SUBSTRUCTURE
     1 UNK         1 GROUP             0       ****    0 ROOT    
