@<TRIPOS>MOLECULE
3R135
127   129    1
SMALL
USER_CHARGES


@<TRIPOS>ATOM
      1 CA        -83.0151   25.4419  -73.2349 C.3       0 UNK        -0.1998 
      2 C         -82.2031   25.9908  -74.3974 C.2       0 UNK         0.4909 
      3 O         -82.4428   25.6063  -75.5425 O.2       0 UNK        -0.5240 
      4 N         -81.2433   26.8824  -74.1115 N.am      1 UNK        -0.4739 
      5 CA        -80.3703   27.5506  -75.0846 C.3       1 UNK         0.0864 
      6 C6        -79.4239   28.5739  -74.4169 C.3       11 UNK        -0.0881 
      7 S7        -80.3131   29.9248  -73.5635 S.3       11 UNK        -0.2682 
      8 C8        -80.1861   29.4757  -71.7971 C.3       11 UNK         0.0289 
      9 C9        -78.7580   29.1644  -71.3712 C.ar      11 UNK        -0.0687 
     10 C10       -78.4158   27.8729  -70.9583 C.ar      11 UNK        -0.0823 
     11 C11       -77.0939   27.5540  -70.6339 C.ar      11 UNK        -0.0830 
     12 C12       -76.1163   28.5531  -70.6952 C.ar      11 UNK        -0.1021 
     13 C13       -76.4449   29.8436  -71.1188 C.ar      11 UNK        -0.0753 
     14 C14       -77.7694   30.1499  -71.4397 C.ar      11 UNK        -0.0933 
     15 C15       -75.3523   30.8817  -71.2949 C.3       11 UNK         0.0166 
     16 S16       -74.6378   30.7359  -72.9613 S.3       11 UNK        -0.2615 
     17 C17       -73.0579   31.6311  -72.7717 C.3       11 UNK        -0.0865 
     18 CA        -71.8401   30.6936  -72.5504 C.3       10 UNK         0.0862 
     19 C         -71.7976   30.1337  -71.0962 C.2       10 UNK         0.5551 
     20 N         -71.9489   28.8329  -70.8768 N.am      10 UNK        -0.7319 
     21 O         -71.6189   30.8990  -70.1520 O.2       10 UNK        -0.5018 
     22 N         -71.7254   29.6879  -73.6212 N.am      10 UNK        -0.4509 
     23 C         -70.6298   28.9594  -73.8712 C.2       10 UNK         0.4899 
     24 O         -69.5628   29.0987  -73.2725 O.2       10 UNK        -0.4839 
     25 CA        -70.7357   27.8779  -74.9602 C.3       9 UNK         0.0222 
     26 CB        -71.1159   26.5311  -74.3266 C.3       9 UNK        -0.1966 
     27 N         -71.6700   28.1970  -76.0473 N.am      9 UNK        -0.4218 
     28 C         -71.4589   29.1618  -76.9562 C.2       9 UNK         0.5020 
     29 O         -70.4971   29.9311  -76.9191 O.2       9 UNK        -0.5274 
     30 CA        -72.4427   29.2775  -78.1341 C.3       8 UNK         0.0270 
     31 CB        -71.8272   28.6613  -79.4018 C.3       8 UNK        -0.1976 
     32 N         -73.7483   28.6585  -77.9018 N.am      8 UNK        -0.4313 
     33 C         -74.7384   29.1872  -77.1768 C.2       8 UNK         0.5041 
     34 O         -74.6236   30.2368  -76.5455 O.2       8 UNK        -0.5577 
     35 CA        -76.0915   28.4449  -77.1601 C.3       7 UNK         0.0284 
     36 CB        -76.9742   28.8846  -78.3433 C.3       7 UNK        -0.1958 
     37 N         -76.0206   26.9781  -77.0818 N.am      7 UNK        -0.4454 
     38 C         -75.4735   26.0887  -77.9263 C.2       7 UNK         0.5089 
     39 O         -74.9218   26.3981  -78.9829 O.2       7 UNK        -0.5125 
     40 CA        -75.5509   24.6018  -77.5140 C.3       6 UNK         0.0408 
     41 CB        -74.2986   23.8103  -77.9483 C.3       6 UNK        -0.1791 
     42 N         -75.8413   24.4029  -76.0834 N.am      6 UNK        -0.4762 
     43 C         -75.0631   24.7831  -75.0563 C.2       6 UNK         0.5007 
     44 O         -73.9586   25.3012  -75.2178 O.2       6 UNK        -0.5032 
     45 CA        -75.6050   24.6021  -73.6236 C.3       5 UNK         0.0783 
     46 C46       -75.3628   25.8723  -72.7607 C.3       11 UNK        -0.0857 
     47 S47       -75.1887   25.4954  -70.9825 S.3       11 UNK        -0.2512 
     48 C48       -76.7415   26.1191  -70.2500 C.3       11 UNK         0.0225 
     49 N         -77.0279   24.2325  -73.6305 N.am      5 UNK        -0.4615 
     50 C         -77.5416   23.1781  -72.9865 C.2       4 UNK         0.5053 
     51 O         -76.8643   22.3320  -72.4029 O.2       4 UNK        -0.5105 
     52 CA        -79.0702   23.0479  -72.9726 C.3       4 UNK         0.0263 
     53 CB        -79.7032   24.1371  -72.0913 C.3       4 UNK        -0.1981 
     54 N         -79.6481   23.1154  -74.3172 N.am      4 UNK        -0.4224 
     55 C         -80.1684   22.0620  -74.9657 C.2       3 UNK         0.4895 
     56 O         -80.1229   20.9076  -74.5384 O.2       3 UNK        -0.5091 
     57 CA        -80.8989   22.3186  -76.2971 C.3       3 UNK         0.0250 
     58 CB        -82.4183   22.1685  -76.1107 C.3       3 UNK        -0.1996 
     59 N         -80.6189   23.6376  -76.8670 N.am      3 UNK        -0.4254 
     60 C         -79.5567   23.9077  -77.6379 C.2       2 UNK         0.5004 
     61 O         -78.7277   23.0632  -77.9742 O.2       2 UNK        -0.5226 
     62 CA        -79.3642   25.3661  -78.0934 C.3       2 UNK         0.0269 
     63 CB        -79.9606   25.5775  -79.4933 C.3       2 UNK        -0.1926 
     64 N         -79.9255   26.3577  -77.1737 N.am      2 UNK        -0.4687 
     65 C         -79.5592   26.5231  -75.8959 C.2       1 UNK         0.5165 
     66 O         -78.6640   25.8733  -75.3441 O.2       1 UNK        -0.5079 
     67 H67       -84.0622   25.7210  -73.3474 H         1 UNK         0.0900 
     68 H68       -82.6639   25.8208  -72.2754 H         1 UNK         0.0900 
     69 H69       -82.9544   24.3542  -73.2150 H         1 UNK         0.0900 
     70 H70       -81.1032   27.1618  -73.1529 H         1 UNK         0.2959 
     71 H71       -81.0185   28.0975  -75.7729 H         1 UNK         0.1079 
     72 H72       -78.7328   28.0721  -73.7396 H         1 UNK         0.0837 
     73 H73       -78.7954   29.0473  -75.1732 H         1 UNK         0.0837 
     74 H74       -80.5644   30.3036  -71.1960 H         1 UNK         0.0685 
     75 H75       -80.8453   28.6299  -71.5978 H         1 UNK         0.0685 
     76 H76       -79.1768   27.1062  -70.9153 H         1 UNK         0.1434 
     77 H77       -75.0874   28.3167  -70.4602 H         1 UNK         0.1329 
     78 H78       -78.0245   31.1420  -71.7868 H         1 UNK         0.1335 
     79 H79       -75.7474   31.8887  -71.1526 H         1 UNK         0.0680 
     80 H80       -74.5825   30.7375  -70.5363 H         1 UNK         0.0680 
     81 H81       -73.1387   32.3715  -71.9732 H         1 UNK         0.1032 
     82 H82       -72.9008   32.2092  -73.6836 H         1 UNK         0.1032 
     83 H83       -70.9519   31.3233  -72.6325 H         1 UNK         0.0461 
     84 H84       -71.9116   28.4830  -69.9329 H         1 UNK         0.3453 
     85 H85       -72.0991   28.2020  -71.6460 H         1 UNK         0.3453 
     86 H86       -72.5658   29.5147  -74.1542 H         1 UNK         0.2984 
     87 H87       -69.7439   27.7666  -75.4040 H         1 UNK         0.0554 
     88 H88       -72.0871   26.5774  -73.8341 H         1 UNK         0.0847 
     89 H89       -70.3851   26.2342  -73.5730 H         1 UNK         0.0847 
     90 H90       -71.1536   25.7347  -75.0702 H         1 UNK         0.0847 
     91 H91       -72.4816   27.6033  -76.1485 H         1 UNK         0.3141 
     92 H92       -72.5996   30.3426  -78.3183 H         1 UNK         0.0743 
     93 H93       -71.6628   27.5887  -79.2896 H         1 UNK         0.0784 
     94 H94       -72.4704   28.8129  -80.2690 H         1 UNK         0.0784 
     95 H95       -70.8633   29.1175  -79.6321 H         1 UNK         0.0784 
     96 H96       -73.9604   27.8012  -78.4111 H         1 UNK         0.3213 
     97 H97       -76.5932   28.7592  -76.2436 H         1 UNK         0.0855 
     98 H98       -77.0957   29.9686  -78.3565 H         1 UNK         0.0814 
     99 H99       -77.9708   28.4482  -78.2789 H         1 UNK         0.0814 
    100 H100      -76.5432   28.5952  -79.3022 H         1 UNK         0.0814 
    101 H101      -76.4324   26.5836  -76.2468 H         1 UNK         0.3105 
    102 H102      -76.3921   24.1803  -78.0607 H         1 UNK         0.0547 
    103 H103      -74.1897   23.8181  -79.0334 H         1 UNK         0.0837 
    104 H104      -73.3826   24.2297  -77.5317 H         1 UNK         0.0837 
    105 H105      -74.3616   22.7670  -77.6397 H         1 UNK         0.0837 
    106 H106      -76.7322   23.9758  -75.8693 H         1 UNK         0.3020 
    107 H107      -75.0050   23.7867  -73.2132 H         1 UNK         0.1245 
    108 H108      -76.1501   26.6068  -72.9341 H         1 UNK         0.0781 
    109 H109      -74.4362   26.3818  -73.0293 H         1 UNK         0.0781 
    110 H110      -76.6665   26.0558  -69.1639 H         1 UNK         0.0836 
    111 H111      -77.5408   25.4399  -70.5420 H         1 UNK         0.0836 
    112 H112      -77.6519   24.8776  -74.1089 H         1 UNK         0.3022 
    113 H113      -79.3065   22.0874  -72.5093 H         1 UNK         0.0747 
    114 H114      -80.7832   24.0113  -72.0306 H         1 UNK         0.0793 
    115 H115      -79.3241   24.0781  -71.0711 H         1 UNK         0.0793 
    116 H116      -79.4987   25.1399  -72.4675 H         1 UNK         0.0793 
    117 H117      -79.6668   24.0220  -74.7654 H         1 UNK         0.3047 
    118 H118      -80.5719   21.5485  -76.9995 H         1 UNK         0.0822 
    119 H119      -82.9490   22.3057  -77.0529 H         1 UNK         0.0807 
    120 H120      -82.8127   22.8910  -75.3958 H         1 UNK         0.0807 
    121 H121      -82.6706   21.1739  -75.7401 H         1 UNK         0.0807 
    122 H122      -81.2563   24.3893  -76.6171 H         1 UNK         0.2946 
    123 H123      -78.2934   25.5492  -78.1556 H         1 UNK         0.1144 
    124 H124      -79.5401   24.8685  -80.2081 H         1 UNK         0.0793 
    125 H125      -79.7460   26.5781  -79.8694 H         1 UNK         0.0793 
    126 H126      -81.0428   25.4406  -79.4962 H         1 UNK         0.0793 
    127 H127      -80.7022   26.8998  -77.5256 H         1 UNK         0.2896 
@<TRIPOS>BOND
     1    1    2 1    
     2    1   67 1    
     3    1   68 1    
     4    1   69 1    
     5    2    3 2    
     6    2    4 am   BACKBONE|DICT|INTERRES
     7    4    5 1    
     8    4   70 1    
     9    5    6 1    
    10    5   65 1    
    11    5   71 1    
    12    6    7 1    
    13    6   72 1    
    14    6   73 1    
    15    7    8 1    
    16    8    9 1    
    17    8   74 1    
    18    8   75 1    
    19    9   10 ar   
    20    9   14 ar   
    21   10   11 ar   
    22   10   76 1    
    23   11   12 ar   
    24   11   48 1    
    25   12   13 ar   
    26   12   77 1    
    27   13   14 ar   
    28   13   15 1    
    29   14   78 1    
    30   15   16 1    
    31   15   79 1    
    32   15   80 1    
    33   16   17 1    
    34   17   18 1    
    35   17   81 1    
    36   17   82 1    
    37   18   19 1    
    38   18   22 1    
    39   18   83 1    
    40   19   20 am   BACKBONE|DICT|INTERRES
    41   19   21 2    
    42   20   84 1    
    43   20   85 1    
    44   22   23 am   BACKBONE|DICT|INTERRES
    45   22   86 1    
    46   23   24 2    
    47   23   25 1    
    48   25   26 1    
    49   25   27 1    
    50   25   87 1    
    51   26   88 1    
    52   26   89 1    
    53   26   90 1    
    54   27   28 am   BACKBONE|DICT|INTERRES
    55   27   91 1    
    56   28   29 2    
    57   28   30 1    
    58   30   31 1    
    59   30   32 1    
    60   30   92 1    
    61   31   93 1    
    62   31   94 1    
    63   31   95 1    
    64   32   33 am   BACKBONE|DICT|INTERRES
    65   32   96 1    
    66   33   34 2    
    67   33   35 1    
    68   35   36 1    
    69   35   37 1    
    70   35   97 1    
    71   36   98 1    
    72   36   99 1    
    73   36  100 1    
    74   37   38 am   BACKBONE|DICT|INTERRES
    75   37  101 1    
    76   38   39 2    
    77   38   40 1    
    78   40   41 1    
    79   40   42 1    
    80   40  102 1    
    81   41  103 1    
    82   41  104 1    
    83   41  105 1    
    84   42   43 am   BACKBONE|DICT|INTERRES
    85   42  106 1    
    86   43   44 2    
    87   43   45 1    
    88   45   46 1    
    89   45   49 1    
    90   45  107 1    
    91   46   47 1    
    92   46  108 1    
    93   46  109 1    
    94   47   48 1    
    95   48  110 1    
    96   48  111 1    
    97   49   50 am   BACKBONE|DICT|INTERRES
    98   49  112 1    
    99   50   51 2    
   100   50   52 1    
   101   52   53 1    
   102   52   54 1    
   103   52  113 1    
   104   53  114 1    
   105   53  115 1    
   106   53  116 1    
   107   54   55 am   BACKBONE|DICT|INTERRES
   108   54  117 1    
   109   55   56 2    
   110   55   57 1    
   111   57   58 1    
   112   57   59 1    
   113   57  118 1    
   114   58  119 1    
   115   58  120 1    
   116   58  121 1    
   117   59   60 am   BACKBONE|DICT|INTERRES
   118   59  122 1    
   119   60   61 2    
   120   60   62 1    
   121   62   63 1    
   122   62   64 1    
   123   62  123 1    
   124   63  124 1    
   125   63  125 1    
   126   63  126 1    
   127   64   65 am   BACKBONE|DICT|INTERRES
   128   64  127 1    
   129   65   66 2    
@<TRIPOS>SUBSTRUCTURE
     1 UNK         1 GROUP             0       ****    0 ROOT    
