@<TRIPOS>MOLECULE
3R135
127   129    1
SMALL
USER_CHARGES


@<TRIPOS>ATOM
      1 CA        -81.4258   24.1175  -71.7124 C.3       0 UNK        -0.1998 
      2 C         -81.6800   24.9653  -72.9495 C.2       0 UNK         0.4909 
      3 O         -82.5486   24.6291  -73.7550 O.2       0 UNK        -0.5240 
      4 N         -80.9311   26.0651  -73.1047 N.am      1 UNK        -0.4739 
      5 CA        -81.0133   26.9883  -74.2421 C.3       1 UNK         0.0864 
      6 C6        -80.0941   28.2197  -74.0592 C.3       11 UNK        -0.0881 
      7 S7        -80.5604   29.2161  -72.6082 S.3       11 UNK        -0.2682 
      8 C8        -79.0378   30.1920  -72.3516 C.3       11 UNK         0.0289 
      9 C9        -77.8264   29.3925  -71.8689 C.ar      11 UNK        -0.0687 
     10 C10       -77.9618   28.2334  -71.0945 C.ar      11 UNK        -0.0823 
     11 C11       -76.8358   27.5382  -70.6455 C.ar      11 UNK        -0.0830 
     12 C12       -75.5610   28.0298  -70.9382 C.ar      11 UNK        -0.1021 
     13 C13       -75.4068   29.1948  -71.6943 C.ar      11 UNK        -0.0753 
     14 C14       -76.5425   29.8589  -72.1703 C.ar      11 UNK        -0.0933 
     15 C15       -74.0152   29.7329  -71.9963 C.3       11 UNK         0.0166 
     16 S16       -73.7700   31.3911  -71.2872 S.3       11 UNK        -0.2615 
     17 C17       -71.9817   31.6555  -71.5371 C.3       11 UNK        -0.0865 
     18 CA        -71.6626   32.2379  -72.9381 C.3       10 UNK         0.0862 
     19 C         -70.2826   32.9485  -72.9511 C.2       10 UNK         0.5551 
     20 N         -70.2532   34.2440  -72.6698 N.am      10 UNK        -0.7319 
     21 O         -69.2398   32.3342  -73.1719 O.2       10 UNK        -0.5018 
     22 N         -71.7193   31.1890  -73.9620 N.am      10 UNK        -0.4509 
     23 C         -72.0144   31.3790  -75.2495 C.2       10 UNK         0.4899 
     24 O         -72.3777   32.4620  -75.7105 O.2       10 UNK        -0.4839 
     25 CA        -71.9014   30.1714  -76.2019 C.3       9 UNK         0.0222 
     26 CB        -70.6000   30.2501  -77.0240 C.3       9 UNK        -0.1966 
     27 N         -72.0592   28.8354  -75.6002 N.am      9 UNK        -0.4218 
     28 C         -71.2652   28.1985  -74.7214 C.2       9 UNK         0.5020 
     29 O         -70.3030   28.7306  -74.1675 O.2       9 UNK        -0.5274 
     30 CA        -71.5860   26.7281  -74.3790 C.3       8 UNK         0.0270 
     31 CB        -72.0753   26.5940  -72.9280 C.3       8 UNK        -0.1976 
     32 N         -72.5670   26.1142  -75.2771 N.am      8 UNK        -0.4313 
     33 C         -72.3182   25.7644  -76.5493 C.2       8 UNK         0.5041 
     34 O         -71.1977   25.8122  -77.0584 O.2       8 UNK        -0.5577 
     35 CA        -73.5111   25.3200  -77.4202 C.3       7 UNK         0.0284 
     36 CB        -73.4999   23.7942  -77.6032 C.3       7 UNK        -0.1958 
     37 N         -74.8199   25.7414  -76.9071 N.am      7 UNK        -0.4454 
     38 C         -75.2045   27.0168  -76.7345 C.2       7 UNK         0.5089 
     39 O         -74.5110   27.9821  -77.0565 O.2       7 UNK        -0.5125 
     40 CA        -76.5531   27.2732  -76.0329 C.3       6 UNK         0.0408 
     41 CB        -77.6273   27.6010  -77.0807 C.3       6 UNK        -0.1791 
     42 N         -77.0153   26.1758  -75.1718 N.am      6 UNK        -0.4762 
     43 C         -76.3211   25.6415  -74.1541 C.2       6 UNK         0.5007 
     44 O         -75.2123   26.0501  -73.8086 O.2       6 UNK        -0.5032 
     45 CA        -76.9051   24.3834  -73.4728 C.3       5 UNK         0.0783 
     46 C46       -77.6158   24.7082  -72.1340 C.3       11 UNK        -0.0857 
     47 S47       -76.4441   24.7847  -70.7363 S.3       11 UNK        -0.2512 
     48 C48       -76.9980   26.2643  -69.8289 C.3       11 UNK         0.0225 
     49 N         -77.7460   23.5446  -74.3405 N.am      5 UNK        -0.4615 
     50 C         -77.3496   22.9721  -75.4863 C.2       4 UNK         0.5053 
     51 O         -76.2903   23.2314  -76.0560 O.2       4 UNK        -0.5105 
     52 CA        -78.2731   21.8984  -76.0682 C.3       4 UNK         0.0263 
     53 CB        -78.2715   20.6532  -75.1525 C.3       4 UNK        -0.1981 
     54 N         -79.6296   22.4086  -76.2895 N.am      4 UNK        -0.4224 
     55 C         -80.5826   21.7430  -76.9635 C.2       3 UNK         0.4895 
     56 O         -80.4186   20.6270  -77.4589 O.2       3 UNK        -0.5091 
     57 CA        -81.9573   22.4162  -77.1291 C.3       3 UNK         0.0250 
     58 CB        -82.9068   21.9762  -76.0031 C.3       3 UNK        -0.1996 
     59 N         -81.8909   23.8766  -77.1706 N.am      3 UNK        -0.4254 
     60 C         -81.3375   24.5834  -78.1673 C.2       2 UNK         0.5004 
     61 O         -80.8962   24.0747  -79.1984 O.2       2 UNK        -0.5226 
     62 CA        -81.2451   26.1125  -77.9962 C.3       2 UNK         0.0269 
     63 CB        -82.2511   26.8183  -78.9206 C.3       2 UNK        -0.1926 
     64 N         -81.4337   26.6065  -76.6259 N.am      2 UNK        -0.4687 
     65 C         -80.6793   26.2801  -75.5683 C.2       1 UNK         0.5165 
     66 O         -79.7459   25.4734  -75.6155 O.2       1 UNK        -0.5079 
     67 H67       -81.0492   23.1366  -72.0009 H         1 UNK         0.0900 
     68 H68       -80.7013   24.5794  -71.0419 H         1 UNK         0.0900 
     69 H69       -82.3539   23.9762  -71.1592 H         1 UNK         0.0900 
     70 H70       -80.2545   26.3117  -72.3996 H         1 UNK         0.2959 
     71 H71       -82.0479   27.3349  -74.2958 H         1 UNK         0.1079 
     72 H72       -80.1428   28.8742  -74.9320 H         1 UNK         0.0837 
     73 H73       -79.0518   27.9081  -73.9652 H         1 UNK         0.0837 
     74 H74       -78.7999   30.7079  -73.2835 H         1 UNK         0.0685 
     75 H75       -79.2484   30.9680  -71.6147 H         1 UNK         0.0685 
     76 H76       -78.9450   27.8687  -70.8345 H         1 UNK         0.1434 
     77 H77       -74.6902   27.4973  -70.5807 H         1 UNK         0.1329 
     78 H78       -76.4215   30.7607  -72.7551 H         1 UNK         0.1335 
     79 H79       -73.8755   29.7651  -73.0771 H         1 UNK         0.0680 
     80 H80       -73.2498   29.0682  -71.5951 H         1 UNK         0.0680 
     81 H81       -71.6637   32.3465  -70.7534 H         1 UNK         0.1032 
     82 H82       -71.4304   30.7308  -71.3554 H         1 UNK         0.1032 
     83 H83       -72.4186   32.9911  -73.1726 H         1 UNK         0.0461 
     84 H84       -71.1013   34.7553  -72.4772 H         1 UNK         0.3453 
     85 H85       -69.3660   34.7233  -72.6575 H         1 UNK         0.3453 
     86 H86       -71.2924   30.3000  -73.7207 H         1 UNK         0.2984 
     87 H87       -72.7328   30.2642  -76.9025 H         1 UNK         0.0554 
     88 H88       -70.5375   31.1945  -77.5665 H         1 UNK         0.0847 
     89 H89       -70.5473   29.4491  -77.7617 H         1 UNK         0.0847 
     90 H90       -69.7146   30.1828  -76.3907 H         1 UNK         0.0847 
     91 H91       -72.8551   28.3206  -75.9658 H         1 UNK         0.3141 
     92 H92       -70.6501   26.1725  -74.4681 H         1 UNK         0.0743 
     93 H93       -71.3676   27.0403  -72.2280 H         1 UNK         0.0784 
     94 H94       -73.0363   27.0851  -72.7826 H         1 UNK         0.0784 
     95 H95       -72.1934   25.5477  -72.6458 H         1 UNK         0.0784 
     96 H96       -73.5159   26.0353  -74.9202 H         1 UNK         0.3213 
     97 H97       -73.3820   25.7827  -78.4009 H         1 UNK         0.0855 
     98 H98       -73.6123   23.2744  -76.6508 H         1 UNK         0.0814 
     99 H99       -72.5611   23.4605  -78.0475 H         1 UNK         0.0814 
    100 H100      -74.3044   23.4657  -78.2613 H         1 UNK         0.0814 
    101 H101      -75.4413   25.0001  -76.5954 H         1 UNK         0.3105 
    102 H102      -76.4198   28.1490  -75.3942 H         1 UNK         0.0547 
    103 H103      -78.5371   27.9755  -76.6162 H         1 UNK         0.0837 
    104 H104      -77.2835   28.3758  -77.7677 H         1 UNK         0.0837 
    105 H105      -77.8833   26.7256  -77.6782 H         1 UNK         0.0837 
    106 H106      -77.9232   25.7716  -75.3923 H         1 UNK         0.3020 
    107 H107      -76.0395   23.7558  -73.2470 H         1 UNK         0.1245 
    108 H108      -78.3312   23.9243  -71.8820 H         1 UNK         0.0781 
    109 H109      -78.1976   25.6267  -72.2096 H         1 UNK         0.0781 
    110 H110      -76.4149   26.3527  -68.9110 H         1 UNK         0.0836 
    111 H111      -78.0347   26.1253  -69.5178 H         1 UNK         0.0836 
    112 H112      -78.6442   23.2819  -73.9655 H         1 UNK         0.3022 
    113 H113      -77.8596   21.6134  -77.0382 H         1 UNK         0.0747 
    114 H114      -78.7358   19.7939  -75.6354 H         1 UNK         0.0793 
    115 H115      -77.2533   20.3552  -74.8971 H         1 UNK         0.0793 
    116 H116      -78.8029   20.8353  -74.2177 H         1 UNK         0.0793 
    117 H117      -79.8117   23.3598  -75.9845 H         1 UNK         0.3047 
    118 H118      -82.3772   22.0755  -78.0783 H         1 UNK         0.0822 
    119 H119      -83.0308   20.8923  -76.0006 H         1 UNK         0.0807 
    120 H120      -83.8977   22.4148  -76.1220 H         1 UNK         0.0807 
    121 H121      -82.5282   22.2609  -75.0208 H         1 UNK         0.0807 
    122 H122      -82.2233   24.3721  -76.3541 H         1 UNK         0.2946 
    123 H123      -80.2388   26.3965  -78.3101 H         1 UNK         0.1144 
    124 H124      -82.1231   27.9007  -78.8960 H         1 UNK         0.0793 
    125 H125      -83.2813   26.5936  -78.6411 H         1 UNK         0.0793 
    126 H126      -82.1193   26.5041  -79.9572 H         1 UNK         0.0793 
    127 H127      -82.1855   27.2691  -76.4970 H         1 UNK         0.2896 
@<TRIPOS>BOND
     1    1    2 1    
     2    1   67 1    
     3    1   68 1    
     4    1   69 1    
     5    2    3 2    
     6    2    4 am   BACKBONE|DICT|INTERRES
     7    4    5 1    
     8    4   70 1    
     9    5    6 1    
    10    5   65 1    
    11    5   71 1    
    12    6    7 1    
    13    6   72 1    
    14    6   73 1    
    15    7    8 1    
    16    8    9 1    
    17    8   74 1    
    18    8   75 1    
    19    9   10 ar   
    20    9   14 ar   
    21   10   11 ar   
    22   10   76 1    
    23   11   12 ar   
    24   11   48 1    
    25   12   13 ar   
    26   12   77 1    
    27   13   14 ar   
    28   13   15 1    
    29   14   78 1    
    30   15   16 1    
    31   15   79 1    
    32   15   80 1    
    33   16   17 1    
    34   17   18 1    
    35   17   81 1    
    36   17   82 1    
    37   18   19 1    
    38   18   22 1    
    39   18   83 1    
    40   19   20 am   BACKBONE|DICT|INTERRES
    41   19   21 2    
    42   20   84 1    
    43   20   85 1    
    44   22   23 am   BACKBONE|DICT|INTERRES
    45   22   86 1    
    46   23   24 2    
    47   23   25 1    
    48   25   26 1    
    49   25   27 1    
    50   25   87 1    
    51   26   88 1    
    52   26   89 1    
    53   26   90 1    
    54   27   28 am   BACKBONE|DICT|INTERRES
    55   27   91 1    
    56   28   29 2    
    57   28   30 1    
    58   30   31 1    
    59   30   32 1    
    60   30   92 1    
    61   31   93 1    
    62   31   94 1    
    63   31   95 1    
    64   32   33 am   BACKBONE|DICT|INTERRES
    65   32   96 1    
    66   33   34 2    
    67   33   35 1    
    68   35   36 1    
    69   35   37 1    
    70   35   97 1    
    71   36   98 1    
    72   36   99 1    
    73   36  100 1    
    74   37   38 am   BACKBONE|DICT|INTERRES
    75   37  101 1    
    76   38   39 2    
    77   38   40 1    
    78   40   41 1    
    79   40   42 1    
    80   40  102 1    
    81   41  103 1    
    82   41  104 1    
    83   41  105 1    
    84   42   43 am   BACKBONE|DICT|INTERRES
    85   42  106 1    
    86   43   44 2    
    87   43   45 1    
    88   45   46 1    
    89   45   49 1    
    90   45  107 1    
    91   46   47 1    
    92   46  108 1    
    93   46  109 1    
    94   47   48 1    
    95   48  110 1    
    96   48  111 1    
    97   49   50 am   BACKBONE|DICT|INTERRES
    98   49  112 1    
    99   50   51 2    
   100   50   52 1    
   101   52   53 1    
   102   52   54 1    
   103   52  113 1    
   104   53  114 1    
   105   53  115 1    
   106   53  116 1    
   107   54   55 am   BACKBONE|DICT|INTERRES
   108   54  117 1    
   109   55   56 2    
   110   55   57 1    
   111   57   58 1    
   112   57   59 1    
   113   57  118 1    
   114   58  119 1    
   115   58  120 1    
   116   58  121 1    
   117   59   60 am   BACKBONE|DICT|INTERRES
   118   59  122 1    
   119   60   61 2    
   120   60   62 1    
   121   62   63 1    
   122   62   64 1    
   123   62  123 1    
   124   63  124 1    
   125   63  125 1    
   126   63  126 1    
   127   64   65 am   BACKBONE|DICT|INTERRES
   128   64  127 1    
   129   65   66 2    
@<TRIPOS>SUBSTRUCTURE
     1 UNK         1 GROUP             0       ****    0 ROOT    
