@<TRIPOS>MOLECULE
3R135
127   129    1
SMALL
USER_CHARGES


@<TRIPOS>ATOM
      1 CA        -81.5108   22.6639  -72.7669 C.3       0 UNK        -0.1998 
      2 C         -81.5939   23.8906  -73.6618 C.2       0 UNK         0.4909 
      3 O         -82.1128   23.8001  -74.7750 O.2       0 UNK        -0.5240 
      4 N         -81.0834   25.0377  -73.1913 N.am      1 UNK        -0.4739 
      5 CA        -81.0507   26.3073  -73.9265 C.3       1 UNK         0.0864 
      6 C6        -80.5197   27.4576  -73.0407 C.3       11 UNK        -0.0881 
      7 S7        -80.9578   29.1215  -73.6624 S.3       11 UNK        -0.2682 
      8 C8        -80.4857   30.2091  -72.2687 C.3       11 UNK         0.0289 
      9 C9        -79.0415   29.9933  -71.8361 C.ar      11 UNK        -0.0687 
     10 C10       -78.7563   29.0205  -70.8762 C.ar      11 UNK        -0.0823 
     11 C11       -77.4367   28.6956  -70.5720 C.ar      11 UNK        -0.0830 
     12 C12       -76.3990   29.4050  -71.1727 C.ar      11 UNK        -0.1021 
     13 C13       -76.6587   30.4155  -72.1027 C.ar      11 UNK        -0.0753 
     14 C14       -77.9912   30.7062  -72.4286 C.ar      11 UNK        -0.0933 
     15 C15       -75.5156   31.1072  -72.8461 C.3       11 UNK         0.0166 
     16 S16       -74.2984   31.9577  -71.7796 S.3       11 UNK        -0.2615 
     17 C17       -73.0362   30.6888  -71.3710 C.3       11 UNK        -0.0865 
     18 CA        -71.8867   30.5568  -72.4043 C.3       10 UNK         0.0862 
     19 C         -70.6893   29.7675  -71.7946 C.2       10 UNK         0.5551 
     20 N         -70.3738   28.5624  -72.2532 N.am      10 UNK        -0.7319 
     21 O         -70.0315   30.2663  -70.8846 O.2       10 UNK        -0.5018 
     22 N         -72.3822   30.0112  -73.6754 N.am      10 UNK        -0.4509 
     23 C         -71.7452   30.0877  -74.8477 C.2       10 UNK         0.4899 
     24 O         -70.6496   30.6273  -75.0137 O.2       10 UNK        -0.4839 
     25 CA        -72.4915   29.4754  -76.0436 C.3       9 UNK         0.0222 
     26 CB        -72.3362   30.3429  -77.3050 C.3       9 UNK        -0.1966 
     27 N         -72.1474   28.0902  -76.3800 N.am      9 UNK        -0.4218 
     28 C         -71.9016   27.0459  -75.5735 C.2       9 UNK         0.5020 
     29 O         -71.6843   27.1211  -74.3637 O.2       9 UNK        -0.5274 
     30 CA        -71.9871   25.6608  -76.2496 C.3       8 UNK         0.0270 
     31 CB        -71.7524   24.4991  -75.2660 C.3       8 UNK        -0.1976 
     32 N         -73.3025   25.4911  -76.8754 N.am      8 UNK        -0.4313 
     33 C         -73.6595   25.9988  -78.0634 C.2       8 UNK         0.5041 
     34 O         -72.8698   26.5412  -78.8374 O.2       8 UNK        -0.5577 
     35 CA        -75.1611   26.0132  -78.3729 C.3       7 UNK         0.0284 
     36 CB        -75.6676   24.6061  -78.7288 C.3       7 UNK        -0.1958 
     37 N         -75.8923   26.5694  -77.2276 N.am      7 UNK        -0.4454 
     38 C         -75.9774   27.8857  -76.9733 C.2       7 UNK         0.5089 
     39 O         -75.6161   28.7513  -77.7704 O.2       7 UNK        -0.5125 
     40 CA        -76.5229   28.3364  -75.6062 C.3       6 UNK         0.0408 
     41 CB        -77.9258   28.9356  -75.7486 C.3       6 UNK        -0.1791 
     42 N         -76.5172   27.2589  -74.6071 N.am      6 UNK        -0.4762 
     43 C         -75.5105   27.0736  -73.7366 C.2       6 UNK         0.5007 
     44 O         -74.5871   27.8777  -73.5999 O.2       6 UNK        -0.5032 
     45 CA        -75.4537   25.7625  -72.9192 C.3       5 UNK         0.0783 
     46 C46       -75.4760   25.9701  -71.3787 C.3       11 UNK        -0.0857 
     47 S47       -77.1379   25.9671  -70.6093 S.3       11 UNK        -0.2512 
     48 C48       -77.1366   27.5214  -69.6594 C.3       11 UNK         0.0225 
     49 N         -76.3728   24.7028  -73.3441 N.am      5 UNK        -0.4615 
     50 C         -76.3081   24.0246  -74.4936 C.2       4 UNK         0.5053 
     51 O         -75.5461   24.3295  -75.4109 O.2       4 UNK        -0.5105 
     52 CA        -77.2036   22.7843  -74.6303 C.3       4 UNK         0.0263 
     53 CB        -77.8617   22.3295  -73.3090 C.3       4 UNK        -0.1981 
     54 N         -78.2362   23.0035  -75.6420 N.am      4 UNK        -0.4224 
     55 C         -78.7005   22.0481  -76.4631 C.2       3 UNK         0.4895 
     56 O         -78.2359   20.9074  -76.4995 O.2       3 UNK        -0.5091 
     57 CA        -79.8961   22.3740  -77.3808 C.3       3 UNK         0.0250 
     58 CB        -81.0864   21.4496  -77.0685 C.3       3 UNK        -0.1996 
     59 N         -80.3370   23.7650  -77.2674 N.am      3 UNK        -0.4254 
     60 C         -79.9292   24.7552  -78.0733 C.2       2 UNK         0.5004 
     61 O         -79.2383   24.5725  -79.0743 O.2       2 UNK        -0.5226 
     62 CA        -80.3446   26.1967  -77.7202 C.3       2 UNK         0.0269 
     63 CB        -81.3641   26.7308  -78.7398 C.3       2 UNK        -0.1926 
     64 N         -80.8926   26.3687  -76.3704 N.am      2 UNK        -0.4687 
     65 C         -80.2326   26.1546  -75.2245 C.2       1 UNK         0.5165 
     66 O         -79.0512   25.7977  -75.1677 O.2       1 UNK        -0.5079 
     67 H67       -82.5124   22.3150  -72.5177 H         1 UNK         0.0900 
     68 H68       -80.9893   21.8587  -73.2835 H         1 UNK         0.0900 
     69 H69       -80.9816   22.8711  -71.8371 H         1 UNK         0.0900 
     70 H70       -80.6536   25.0493  -72.2776 H         1 UNK         0.2959 
     71 H71       -82.0861   26.5359  -74.1895 H         1 UNK         0.1079 
     72 H72       -80.9425   27.3692  -72.0389 H         1 UNK         0.0837 
     73 H73       -79.4361   27.3814  -72.9271 H         1 UNK         0.0837 
     74 H74       -80.6344   31.2487  -72.5640 H         1 UNK         0.0685 
     75 H75       -81.1610   30.0307  -71.4304 H         1 UNK         0.0685 
     76 H76       -79.5608   28.4592  -70.4215 H         1 UNK         0.1434 
     77 H77       -75.3908   29.1194  -70.9422 H         1 UNK         0.1329 
     78 H78       -78.2126   31.4498  -73.1817 H         1 UNK         0.1335 
     79 H79       -75.9230   31.8550  -73.5279 H         1 UNK         0.0680 
     80 H80       -75.0096   30.3851  -73.4799 H         1 UNK         0.0680 
     81 H81       -72.6331   30.9768  -70.3979 H         1 UNK         0.1032 
     82 H82       -73.4798   29.7108  -71.2167 H         1 UNK         0.1032 
     83 H83       -71.5088   31.5606  -72.6080 H         1 UNK         0.0461 
     84 H84       -69.5953   28.0676  -71.8496 H         1 UNK         0.3453 
     85 H85       -70.9103   28.1342  -73.0057 H         1 UNK         0.3453 
     86 H86       -73.2175   29.4369  -73.6211 H         1 UNK         0.2984 
     87 H87       -73.5527   29.4705  -75.7920 H         1 UNK         0.0554 
     88 H88       -72.5895   31.3838  -77.0988 H         1 UNK         0.0847 
     89 H89       -72.9967   30.0040  -78.1037 H         1 UNK         0.0847 
     90 H90       -71.3134   30.3243  -77.6836 H         1 UNK         0.0847 
     91 H91       -72.2854   27.8467  -77.3557 H         1 UNK         0.3141 
     92 H92       -71.2097   25.6166  -77.0154 H         1 UNK         0.0743 
     93 H93       -70.7731   24.5799  -74.7923 H         1 UNK         0.0784 
     94 H94       -72.5001   24.4842  -74.4723 H         1 UNK         0.0784 
     95 H95       -71.7871   23.5362  -75.7756 H         1 UNK         0.0784 
     96 H96       -74.0315   25.0785  -76.2973 H         1 UNK         0.3213 
     97 H97       -75.3214   26.6527  -79.2440 H         1 UNK         0.0855 
     98 H98       -75.5434   23.8932  -77.9148 H         1 UNK         0.0814 
     99 H99       -75.1275   24.2085  -79.5889 H         1 UNK         0.0814 
    100 H100      -76.7207   24.6261  -78.9969 H         1 UNK         0.0814 
    101 H101      -76.1496   25.9141  -76.4983 H         1 UNK         0.3105 
    102 H102      -75.8808   29.1505  -75.2692 H         1 UNK         0.0547 
    103 H103      -78.3237   29.2257  -74.7793 H         1 UNK         0.0837 
    104 H104      -77.9032   29.8313  -76.3702 H         1 UNK         0.0837 
    105 H105      -78.6234   28.2444  -76.2112 H         1 UNK         0.0837 
    106 H106      -77.2734   26.5822  -74.6549 H         1 UNK         0.3020 
    107 H107      -74.4536   25.3846  -73.1457 H         1 UNK         0.1245 
    108 H108      -74.9208   26.8641  -71.0933 H         1 UNK         0.0781 
    109 H109      -74.9290   25.1487  -70.9134 H         1 UNK         0.0781 
    110 H110      -76.1814   27.6530  -69.1487 H         1 UNK         0.0836 
    111 H111      -77.8941   27.4591  -68.8767 H         1 UNK         0.0836 
    112 H112      -77.0479   24.4194  -72.6488 H         1 UNK         0.3022 
    113 H113      -76.5349   21.9869  -74.9613 H         1 UNK         0.0747 
    114 H114      -78.4056   21.3947  -73.4456 H         1 UNK         0.0793 
    115 H115      -77.1146   22.1484  -72.5349 H         1 UNK         0.0793 
    116 H116      -78.5673   23.0685  -72.9293 H         1 UNK         0.0793 
    117 H117      -78.6236   23.9419  -75.6822 H         1 UNK         0.3047 
    118 H118      -79.5770   22.1685  -78.4048 H         1 UNK         0.0822 
    119 H119      -80.8235   20.4037  -77.2324 H         1 UNK         0.0807 
    120 H120      -81.9401   21.6710  -77.7091 H         1 UNK         0.0807 
    121 H121      -81.4114   21.5427  -76.0321 H         1 UNK         0.0807 
    122 H122      -80.9373   23.9842  -76.4782 H         1 UNK         0.2946 
    123 H123      -79.4387   26.8003  -77.7971 H         1 UNK         0.1144 
    124 H124      -81.5910   27.7822  -78.5617 H         1 UNK         0.0793 
    125 H125      -82.3003   26.1724  -78.7039 H         1 UNK         0.0793 
    126 H126      -80.9782   26.6543  -79.7575 H         1 UNK         0.0793 
    127 H127      -81.8667   26.6319  -76.3204 H         1 UNK         0.2896 
@<TRIPOS>BOND
     1    1    2 1    
     2    1   67 1    
     3    1   68 1    
     4    1   69 1    
     5    2    3 2    
     6    2    4 am   BACKBONE|DICT|INTERRES
     7    4    5 1    
     8    4   70 1    
     9    5    6 1    
    10    5   65 1    
    11    5   71 1    
    12    6    7 1    
    13    6   72 1    
    14    6   73 1    
    15    7    8 1    
    16    8    9 1    
    17    8   74 1    
    18    8   75 1    
    19    9   10 ar   
    20    9   14 ar   
    21   10   11 ar   
    22   10   76 1    
    23   11   12 ar   
    24   11   48 1    
    25   12   13 ar   
    26   12   77 1    
    27   13   14 ar   
    28   13   15 1    
    29   14   78 1    
    30   15   16 1    
    31   15   79 1    
    32   15   80 1    
    33   16   17 1    
    34   17   18 1    
    35   17   81 1    
    36   17   82 1    
    37   18   19 1    
    38   18   22 1    
    39   18   83 1    
    40   19   20 am   BACKBONE|DICT|INTERRES
    41   19   21 2    
    42   20   84 1    
    43   20   85 1    
    44   22   23 am   BACKBONE|DICT|INTERRES
    45   22   86 1    
    46   23   24 2    
    47   23   25 1    
    48   25   26 1    
    49   25   27 1    
    50   25   87 1    
    51   26   88 1    
    52   26   89 1    
    53   26   90 1    
    54   27   28 am   BACKBONE|DICT|INTERRES
    55   27   91 1    
    56   28   29 2    
    57   28   30 1    
    58   30   31 1    
    59   30   32 1    
    60   30   92 1    
    61   31   93 1    
    62   31   94 1    
    63   31   95 1    
    64   32   33 am   BACKBONE|DICT|INTERRES
    65   32   96 1    
    66   33   34 2    
    67   33   35 1    
    68   35   36 1    
    69   35   37 1    
    70   35   97 1    
    71   36   98 1    
    72   36   99 1    
    73   36  100 1    
    74   37   38 am   BACKBONE|DICT|INTERRES
    75   37  101 1    
    76   38   39 2    
    77   38   40 1    
    78   40   41 1    
    79   40   42 1    
    80   40  102 1    
    81   41  103 1    
    82   41  104 1    
    83   41  105 1    
    84   42   43 am   BACKBONE|DICT|INTERRES
    85   42  106 1    
    86   43   44 2    
    87   43   45 1    
    88   45   46 1    
    89   45   49 1    
    90   45  107 1    
    91   46   47 1    
    92   46  108 1    
    93   46  109 1    
    94   47   48 1    
    95   48  110 1    
    96   48  111 1    
    97   49   50 am   BACKBONE|DICT|INTERRES
    98   49  112 1    
    99   50   51 2    
   100   50   52 1    
   101   52   53 1    
   102   52   54 1    
   103   52  113 1    
   104   53  114 1    
   105   53  115 1    
   106   53  116 1    
   107   54   55 am   BACKBONE|DICT|INTERRES
   108   54  117 1    
   109   55   56 2    
   110   55   57 1    
   111   57   58 1    
   112   57   59 1    
   113   57  118 1    
   114   58  119 1    
   115   58  120 1    
   116   58  121 1    
   117   59   60 am   BACKBONE|DICT|INTERRES
   118   59  122 1    
   119   60   61 2    
   120   60   62 1    
   121   62   63 1    
   122   62   64 1    
   123   62  123 1    
   124   63  124 1    
   125   63  125 1    
   126   63  126 1    
   127   64   65 am   BACKBONE|DICT|INTERRES
   128   64  127 1    
   129   65   66 2    
@<TRIPOS>SUBSTRUCTURE
     1 UNK         1 GROUP             0       ****    0 ROOT    
