@<TRIPOS>MOLECULE
3R135
127   129    1
SMALL
USER_CHARGES


@<TRIPOS>ATOM
      1 CA        -80.2856   22.1398  -71.4470 C.3       0 UNK        -0.1998 
      2 C         -80.6748   23.4057  -72.1937 C.2       0 UNK         0.4909 
      3 O         -80.0636   23.7227  -73.2131 O.2       0 UNK        -0.5240 
      4 N         -81.7076   24.1136  -71.7115 N.am      1 UNK        -0.4739 
      5 CA        -82.2000   25.4181  -72.1991 C.3       1 UNK         0.0864 
      6 C6        -81.1622   26.5630  -72.0262 C.3       11 UNK        -0.0881 
      7 S7        -80.5217   26.7115  -70.3214 S.3       11 UNK        -0.2682 
      8 C8        -80.2955   28.5112  -70.1589 C.3       11 UNK         0.0289 
      9 C9        -79.1259   29.0174  -70.9924 C.ar      11 UNK        -0.0687 
     10 C10       -79.3460   29.5583  -72.2633 C.ar      11 UNK        -0.0823 
     11 C11       -78.2827   30.0356  -73.0370 C.ar      11 UNK        -0.0830 
     12 C12       -76.9851   29.9734  -72.5099 C.ar      11 UNK        -0.1021 
     13 C13       -76.7498   29.4374  -71.2414 C.ar      11 UNK        -0.0753 
     14 C14       -77.8238   28.9591  -70.4858 C.ar      11 UNK        -0.0933 
     15 C15       -75.3286   29.3810  -70.7030 C.3       11 UNK         0.0166 
     16 S16       -74.3736   28.0822  -71.5417 S.3       11 UNK        -0.2615 
     17 C17       -72.6727   28.5018  -71.0379 C.3       11 UNK        -0.0865 
     18 CA        -71.9819   29.5434  -71.9614 C.3       10 UNK         0.0862 
     19 C         -70.4968   29.7284  -71.5284 C.2       10 UNK         0.5551 
     20 N         -69.5180   29.2433  -72.2855 N.am      10 UNK        -0.7319 
     21 O         -70.2337   30.3190  -70.4840 O.2       10 UNK        -0.5018 
     22 N         -72.1664   29.2283  -73.3861 N.am      10 UNK        -0.4509 
     23 C         -71.8437   30.0268  -74.4121 C.2       10 UNK         0.4899 
     24 O         -71.4777   31.1951  -74.2768 O.2       10 UNK        -0.4839 
     25 CA        -71.9390   29.4156  -75.8276 C.3       9 UNK         0.0222 
     26 CB        -70.8634   29.9778  -76.7811 C.3       9 UNK        -0.1966 
     27 N         -71.9327   27.9418  -75.8492 N.am      9 UNK        -0.4218 
     28 C         -70.9651   27.1389  -75.3758 C.2       9 UNK         0.5020 
     29 O         -69.9202   27.5600  -74.8748 O.2       9 UNK        -0.5274 
     30 CA        -71.2006   25.6210  -75.4025 C.3       8 UNK         0.0270 
     31 CB        -71.2157   25.0584  -73.9686 C.3       8 UNK        -0.1976 
     32 N         -72.4480   25.2254  -76.0660 N.am      8 UNK        -0.4313 
     33 C         -72.5341   24.2583  -76.9895 C.2       8 UNK         0.5041 
     34 O         -71.5600   23.7019  -77.4986 O.2       8 UNK        -0.5577 
     35 CA        -73.9441   23.8008  -77.3886 C.3       7 UNK         0.0284 
     36 CB        -74.6192   23.0425  -76.2325 C.3       7 UNK        -0.1958 
     37 N         -74.7920   24.9138  -77.8135 N.am      7 UNK        -0.4454 
     38 C         -74.8752   25.3617  -79.0738 C.2       7 UNK         0.5089 
     39 O         -74.2122   24.9094  -80.0074 O.2       7 UNK        -0.5125 
     40 CA        -75.8941   26.4822  -79.3570 C.3       6 UNK         0.0408 
     41 CB        -77.1773   25.8934  -79.9656 C.3       6 UNK        -0.1791 
     42 N         -76.2464   27.2682  -78.1720 N.am      6 UNK        -0.4762 
     43 C         -75.4391   28.1709  -77.5972 C.2       6 UNK         0.5007 
     44 O         -74.3137   28.4430  -78.0120 O.2       6 UNK        -0.5032 
     45 CA        -75.9665   28.8413  -76.3125 C.3       5 UNK         0.0783 
     46 C46       -76.9773   29.9581  -76.6762 C.3       11 UNK        -0.0857 
     47 S47       -77.1587   31.2176  -75.3732 S.3       11 UNK        -0.2512 
     48 C48       -78.5983   30.6186  -74.4174 C.3       11 UNK         0.0225 
     49 N         -76.5419   27.8455  -75.4013 N.am      5 UNK        -0.4615 
     50 C         -75.8977   26.7887  -74.8899 C.2       4 UNK         0.5053 
     51 O         -74.6947   26.5755  -75.0543 O.2       4 UNK        -0.5105 
     52 CA        -76.7537   25.7311  -74.1733 C.3       4 UNK         0.0263 
     53 CB        -77.4878   26.2968  -72.9470 C.3       4 UNK        -0.1981 
     54 N         -77.6777   25.0327  -75.0801 N.am      4 UNK        -0.4224 
     55 C         -78.7293   25.5267  -75.7535 C.2       3 UNK         0.4895 
     56 O         -79.0877   26.7046  -75.7108 O.2       3 UNK        -0.5091 
     57 CA        -79.5133   24.5521  -76.6433 C.3       3 UNK         0.0250 
     58 CB        -78.7690   23.2393  -76.9663 C.3       3 UNK        -0.1996 
     59 N         -80.7732   24.2494  -75.9746 N.am      3 UNK        -0.4254 
     60 C         -81.9848   24.2608  -76.5473 C.2       2 UNK         0.5004 
     61 O         -82.1729   24.4791  -77.7450 O.2       2 UNK        -0.5226 
     62 CA        -83.2028   23.9749  -75.6439 C.3       2 UNK         0.0269 
     63 CB        -83.6944   22.5321  -75.8459 C.3       2 UNK        -0.1926 
     64 N         -82.9259   24.1878  -74.2209 N.am      2 UNK        -0.4687 
     65 C         -82.7492   25.3871  -73.6482 C.2       1 UNK         0.5165 
     66 O         -82.9916   26.4455  -74.2306 O.2       1 UNK        -0.5079 
     67 H67       -80.3681   21.2755  -72.1053 H         1 UNK         0.0900 
     68 H68       -79.2531   22.2119  -71.1065 H         1 UNK         0.0900 
     69 H69       -80.9188   21.9676  -70.5769 H         1 UNK         0.0900 
     70 H70       -82.1767   23.7748  -70.8826 H         1 UNK         0.2959 
     71 H71       -83.0609   25.6624  -71.5747 H         1 UNK         0.1079 
     72 H72       -81.6120   27.5170  -72.3053 H         1 UNK         0.0837 
     73 H73       -80.3217   26.4189  -72.7045 H         1 UNK         0.0837 
     74 H74       -81.2179   29.0254  -70.4332 H         1 UNK         0.0685 
     75 H75       -80.1211   28.7469  -69.1080 H         1 UNK         0.0685 
     76 H76       -80.3530   29.6076  -72.6545 H         1 UNK         0.1434 
     77 H77       -76.1375   30.3299  -73.0764 H         1 UNK         0.1329 
     78 H78       -77.6484   28.5380  -69.5053 H         1 UNK         0.1335 
     79 H79       -75.3243   29.1972  -69.6276 H         1 UNK         0.0680 
     80 H80       -74.8474   30.3478  -70.8581 H         1 UNK         0.0680 
     81 H81       -72.1025   27.5706  -71.0298 H         1 UNK         0.1032 
     82 H82       -72.6831   28.8534  -70.0042 H         1 UNK         0.1032 
     83 H83       -72.4711   30.5046  -71.7940 H         1 UNK         0.0461 
     84 H84       -69.7240   28.7489  -73.1461 H         1 UNK         0.3453 
     85 H85       -68.5614   29.3693  -71.9959 H         1 UNK         0.3453 
     86 H86       -72.4946   28.2960  -73.5887 H         1 UNK         0.2984 
     87 H87       -72.9051   29.7301  -76.2171 H         1 UNK         0.0554 
     88 H88       -70.9549   31.0598  -76.8829 H         1 UNK         0.0847 
     89 H89       -70.9603   29.5527  -77.7801 H         1 UNK         0.0847 
     90 H90       -69.8545   29.7705  -76.4232 H         1 UNK         0.0847 
     91 H91       -72.7607   27.5124  -76.2399 H         1 UNK         0.3141 
     92 H92       -70.3406   25.1975  -75.9252 H         1 UNK         0.0743 
     93 H93       -72.0479   25.4595  -73.3881 H         1 UNK         0.0784 
     94 H94       -71.3033   23.9718  -73.9715 H         1 UNK         0.0784 
     95 H95       -70.2960   25.3045  -73.4359 H         1 UNK         0.0784 
     96 H96       -73.3055   25.6322  -75.6924 H         1 UNK         0.3213 
     97 H97       -73.8388   23.0972  -78.2181 H         1 UNK         0.0855 
     98 H98       -74.7660   23.6737  -75.3568 H         1 UNK         0.0814 
     99 H99       -74.0089   22.1944  -75.9187 H         1 UNK         0.0814 
    100 H100      -75.5887   22.6448  -76.5310 H         1 UNK         0.0814 
    101 H101      -75.3320   25.3840  -77.1036 H         1 UNK         0.3105 
    102 H102      -75.4470   27.1534  -80.0938 H         1 UNK         0.0547 
    103 H103      -77.8854   26.6767  -80.2362 H         1 UNK         0.0837 
    104 H104      -77.6768   25.2098  -79.2790 H         1 UNK         0.0837 
    105 H105      -76.9553   25.3337  -80.8754 H         1 UNK         0.0837 
    106 H106      -77.1611   27.1159  -77.7713 H         1 UNK         0.3020 
    107 H107      -75.1119   29.2904  -75.8050 H         1 UNK         0.1245 
    108 H108      -77.9503   29.5414  -76.9425 H         1 UNK         0.0781 
    109 H109      -76.6434   30.5046  -77.5612 H         1 UNK         0.0781 
    110 H110      -79.1498   29.8781  -74.9983 H         1 UNK         0.0836 
    111 H111      -79.2766   31.4622  -74.2822 H         1 UNK         0.0836 
    112 H112      -77.5491   27.8683  -75.2788 H         1 UNK         0.3022 
    113 H113      -76.0659   24.9706  -73.8014 H         1 UNK         0.0747 
    114 H114      -78.0710   25.5259  -72.4440 H         1 UNK         0.0793 
    115 H115      -76.7830   26.6875  -72.2159 H         1 UNK         0.0793 
    116 H116      -78.1625   27.1092  -73.2111 H         1 UNK         0.0793 
    117 H117      -77.5058   24.0422  -75.1782 H         1 UNK         0.3047 
    118 H118      -79.7019   25.0780  -77.5818 H         1 UNK         0.0822 
    119 H119      -79.3386   22.6392  -77.6763 H         1 UNK         0.0807 
    120 H120      -78.6099   22.6255  -76.0788 H         1 UNK         0.0807 
    121 H121      -77.7986   23.4339  -77.4246 H         1 UNK         0.0807 
    122 H122      -80.7007   24.0889  -74.9715 H         1 UNK         0.2946 
    123 H123      -83.9996   24.6578  -75.9479 H         1 UNK         0.1144 
    124 H124      -82.9374   21.8029  -75.5542 H         1 UNK         0.0793 
    125 H125      -83.9394   22.3464  -76.8927 H         1 UNK         0.0793 
    126 H126      -84.5951   22.3342  -75.2645 H         1 UNK         0.0793 
    127 H127      -82.7063   23.3702  -73.6703 H         1 UNK         0.2896 
@<TRIPOS>BOND
     1    1    2 1    
     2    1   67 1    
     3    1   68 1    
     4    1   69 1    
     5    2    3 2    
     6    2    4 am   BACKBONE|DICT|INTERRES
     7    4    5 1    
     8    4   70 1    
     9    5    6 1    
    10    5   65 1    
    11    5   71 1    
    12    6    7 1    
    13    6   72 1    
    14    6   73 1    
    15    7    8 1    
    16    8    9 1    
    17    8   74 1    
    18    8   75 1    
    19    9   10 ar   
    20    9   14 ar   
    21   10   11 ar   
    22   10   76 1    
    23   11   12 ar   
    24   11   48 1    
    25   12   13 ar   
    26   12   77 1    
    27   13   14 ar   
    28   13   15 1    
    29   14   78 1    
    30   15   16 1    
    31   15   79 1    
    32   15   80 1    
    33   16   17 1    
    34   17   18 1    
    35   17   81 1    
    36   17   82 1    
    37   18   19 1    
    38   18   22 1    
    39   18   83 1    
    40   19   20 am   BACKBONE|DICT|INTERRES
    41   19   21 2    
    42   20   84 1    
    43   20   85 1    
    44   22   23 am   BACKBONE|DICT|INTERRES
    45   22   86 1    
    46   23   24 2    
    47   23   25 1    
    48   25   26 1    
    49   25   27 1    
    50   25   87 1    
    51   26   88 1    
    52   26   89 1    
    53   26   90 1    
    54   27   28 am   BACKBONE|DICT|INTERRES
    55   27   91 1    
    56   28   29 2    
    57   28   30 1    
    58   30   31 1    
    59   30   32 1    
    60   30   92 1    
    61   31   93 1    
    62   31   94 1    
    63   31   95 1    
    64   32   33 am   BACKBONE|DICT|INTERRES
    65   32   96 1    
    66   33   34 2    
    67   33   35 1    
    68   35   36 1    
    69   35   37 1    
    70   35   97 1    
    71   36   98 1    
    72   36   99 1    
    73   36  100 1    
    74   37   38 am   BACKBONE|DICT|INTERRES
    75   37  101 1    
    76   38   39 2    
    77   38   40 1    
    78   40   41 1    
    79   40   42 1    
    80   40  102 1    
    81   41  103 1    
    82   41  104 1    
    83   41  105 1    
    84   42   43 am   BACKBONE|DICT|INTERRES
    85   42  106 1    
    86   43   44 2    
    87   43   45 1    
    88   45   46 1    
    89   45   49 1    
    90   45  107 1    
    91   46   47 1    
    92   46  108 1    
    93   46  109 1    
    94   47   48 1    
    95   48  110 1    
    96   48  111 1    
    97   49   50 am   BACKBONE|DICT|INTERRES
    98   49  112 1    
    99   50   51 2    
   100   50   52 1    
   101   52   53 1    
   102   52   54 1    
   103   52  113 1    
   104   53  114 1    
   105   53  115 1    
   106   53  116 1    
   107   54   55 am   BACKBONE|DICT|INTERRES
   108   54  117 1    
   109   55   56 2    
   110   55   57 1    
   111   57   58 1    
   112   57   59 1    
   113   57  118 1    
   114   58  119 1    
   115   58  120 1    
   116   58  121 1    
   117   59   60 am   BACKBONE|DICT|INTERRES
   118   59  122 1    
   119   60   61 2    
   120   60   62 1    
   121   62   63 1    
   122   62   64 1    
   123   62  123 1    
   124   63  124 1    
   125   63  125 1    
   126   63  126 1    
   127   64   65 am   BACKBONE|DICT|INTERRES
   128   64  127 1    
   129   65   66 2    
@<TRIPOS>SUBSTRUCTURE
     1 UNK         1 GROUP             0       ****    0 ROOT    
