@<TRIPOS>MOLECULE
3R135
127   129    1
SMALL
USER_CHARGES


@<TRIPOS>ATOM
      1 CA        -81.9698   27.3326  -69.7987 C.3       0 UNK        -0.1998 
      2 C         -82.7800   27.1719  -71.0763 C.2       0 UNK         0.4909 
      3 O         -83.8271   26.5245  -71.0618 O.2       0 UNK        -0.5240 
      4 N         -82.3019   27.7551  -72.1833 N.am      1 UNK        -0.4739 
      5 CA        -82.9294   27.6861  -73.5101 C.3       1 UNK         0.0864 
      6 C6        -82.4873   28.8719  -74.4090 C.3       11 UNK        -0.0881 
      7 S7        -80.7050   28.8766  -74.8105 S.3       11 UNK        -0.2682 
      8 C8        -80.0363   30.0932  -73.6364 C.3       11 UNK         0.0289 
      9 C9        -78.6197   29.7079  -73.2442 C.ar      11 UNK        -0.0687 
     10 C10       -78.4071   28.8231  -72.1833 C.ar      11 UNK        -0.0823 
     11 C11       -77.1144   28.4219  -71.8372 C.ar      11 UNK        -0.0830 
     12 C12       -76.0266   28.9258  -72.5572 C.ar      11 UNK        -0.1021 
     13 C13       -76.2271   29.7958  -73.6328 C.ar      11 UNK        -0.0753 
     14 C14       -77.5253   30.1971  -73.9629 C.ar      11 UNK        -0.0933 
     15 C15       -75.0497   30.2186  -74.4968 C.3       11 UNK         0.0166 
     16 S16       -74.2151   31.7005  -73.8641 S.3       11 UNK        -0.2615 
     17 C17       -72.7455   31.7051  -74.9521 C.3       11 UNK        -0.0865 
     18 CA        -71.4041   31.2469  -74.3025 C.3       10 UNK         0.0862 
     19 C         -70.8299   32.2388  -73.2420 C.2       10 UNK         0.5551 
     20 N         -70.0444   31.7867  -72.2723 N.am      10 UNK        -0.7319 
     21 O         -71.0523   33.4445  -73.3270 O.2       10 UNK        -0.5018 
     22 N         -71.3584   29.8070  -73.9697 N.am      10 UNK        -0.4509 
     23 C         -71.8591   29.1868  -72.8920 C.2       10 UNK         0.4899 
     24 O         -72.4651   29.7524  -71.9826 O.2       10 UNK        -0.4839 
     25 CA        -71.6016   27.6719  -72.7984 C.3       9 UNK         0.0222 
     26 CB        -72.3561   27.0051  -71.6345 C.3       9 UNK        -0.1966 
     27 N         -71.9152   26.9485  -74.0341 N.am      9 UNK        -0.4218 
     28 C         -71.0525   26.7532  -75.0376 C.2       9 UNK         0.5020 
     29 O         -69.9985   27.3804  -75.1544 O.2       9 UNK        -0.5274 
     30 CA        -71.3835   25.6420  -76.0410 C.3       8 UNK         0.0270 
     31 CB        -71.4938   24.2764  -75.3374 C.3       8 UNK        -0.1976 
     32 N         -72.6144   25.8949  -76.7916 N.am      8 UNK        -0.4313 
     33 C         -72.6868   25.8808  -78.1311 C.2       8 UNK         0.5041 
     34 O         -71.6978   25.8072  -78.8633 O.2       8 UNK        -0.5577 
     35 CA        -74.0766   25.9029  -78.7970 C.3       7 UNK         0.0284 
     36 CB        -74.3528   24.5620  -79.4991 C.3       7 UNK        -0.1958 
     37 N         -75.1831   26.1804  -77.8831 N.am      7 UNK        -0.4454 
     38 C         -75.4751   27.3878  -77.3876 C.2       7 UNK         0.5089 
     39 O         -74.8371   28.4101  -77.6391 O.2       7 UNK        -0.5125 
     40 CA        -76.6751   27.4558  -76.4325 C.3       6 UNK         0.0408 
     41 CB        -77.9815   27.5403  -77.2345 C.3       6 UNK        -0.1791 
     42 N         -76.7522   26.3495  -75.4717 N.am      6 UNK        -0.4762 
     43 C         -75.7793   25.9512  -74.6344 C.2       6 UNK         0.5007 
     44 O         -74.6364   26.4131  -74.6245 O.2       6 UNK        -0.5032 
     45 CA        -76.1252   24.7830  -73.6950 C.3       5 UNK         0.0783 
     46 C46       -77.0114   25.2185  -72.4987 C.3       11 UNK        -0.0857 
     47 S47       -76.0027   25.9331  -71.1554 S.3       11 UNK        -0.2512 
     48 C48       -76.9090   27.4453  -70.6849 C.3       11 UNK         0.0225 
     49 N         -76.7274   23.6980  -74.4691 N.am      5 UNK        -0.4615 
     50 C         -76.0212   22.8121  -75.1865 C.2       4 UNK         0.5053 
     51 O         -74.7927   22.7435  -75.1701 O.2       4 UNK        -0.5105 
     52 CA        -76.8087   21.8441  -76.0873 C.3       4 UNK         0.0263 
     53 CB        -77.0819   20.5250  -75.3474 C.3       4 UNK        -0.1981 
     54 N         -78.0748   22.3984  -76.5714 N.am      4 UNK        -0.4224 
     55 C         -78.1853   23.4460  -77.4011 C.2       3 UNK         0.4895 
     56 O         -77.2251   24.0421  -77.8896 O.2       3 UNK        -0.5091 
     57 CA        -79.6132   23.9400  -77.6930 C.3       3 UNK         0.0250 
     58 CB        -80.2086   23.1837  -78.8910 C.3       3 UNK        -0.1996 
     59 N         -80.5245   23.8408  -76.5453 N.am      3 UNK        -0.4254 
     60 C         -80.3368   24.4423  -75.3619 C.2       2 UNK         0.5004 
     61 O         -79.3373   25.1073  -75.0777 O.2       2 UNK        -0.5226 
     62 CA        -81.4110   24.2162  -74.2917 C.3       2 UNK         0.0269 
     63 CB        -80.8736   23.2966  -73.1825 C.3       2 UNK        -0.1926 
     64 N         -81.7971   25.4971  -73.7057 N.am      2 UNK        -0.4687 
     65 C         -82.7314   26.3177  -74.2071 C.2       1 UNK         0.5165 
     66 O         -83.4291   26.0321  -75.1821 O.2       1 UNK        -0.5079 
     67 H67       -81.1210   28.0025  -69.9328 H         1 UNK         0.0900 
     68 H68       -81.5917   26.3647  -69.4703 H         1 UNK         0.0900 
     69 H69       -82.5973   27.7395  -69.0061 H         1 UNK         0.0900 
     70 H70       -81.4379   28.2733  -72.1450 H         1 UNK         0.2959 
     71 H71       -84.0076   27.7854  -73.3642 H         1 UNK         0.1079 
     72 H72       -83.0417   28.8528  -75.3493 H         1 UNK         0.0837 
     73 H73       -82.7570   29.8183  -73.9377 H         1 UNK         0.0837 
     74 H74       -80.0548   31.0842  -74.0923 H         1 UNK         0.0685 
     75 H75       -80.6624   30.1521  -72.7453 H         1 UNK         0.0685 
     76 H76       -79.2520   28.4339  -71.6346 H         1 UNK         0.1434 
     77 H77       -75.0235   28.6134  -72.3059 H         1 UNK         0.1329 
     78 H78       -77.6869   30.8574  -74.8039 H         1 UNK         0.1335 
     79 H79       -74.3372   29.3945  -74.5628 H         1 UNK         0.0680 
     80 H80       -75.3814   30.4129  -75.5179 H         1 UNK         0.0680 
     81 H81       -72.6362   32.7159  -75.3490 H         1 UNK         0.1032 
     82 H82       -72.9454   31.0871  -75.8289 H         1 UNK         0.1032 
     83 H83       -70.6697   31.3254  -75.1049 H         1 UNK         0.0461 
     84 H84       -69.8532   30.8014  -72.1906 H         1 UNK         0.3453 
     85 H85       -69.6634   32.4348  -71.6013 H         1 UNK         0.3453 
     86 H86       -70.8357   29.2273  -74.6171 H         1 UNK         0.2984 
     87 H87       -70.5362   27.5573  -72.5874 H         1 UNK         0.0554 
     88 H88       -72.0992   25.9495  -71.5461 H         1 UNK         0.0847 
     89 H89       -73.4333   27.0751  -71.7694 H         1 UNK         0.0847 
     90 H90       -72.1131   27.4759  -70.6810 H         1 UNK         0.0847 
     91 H91       -72.8384   26.5247  -74.0889 H         1 UNK         0.3141 
     92 H92       -70.5284   25.5836  -76.7178 H         1 UNK         0.0743 
     93 H93       -72.3606   24.2245  -74.6770 H         1 UNK         0.0784 
     94 H94       -71.5857   23.4677  -76.0628 H         1 UNK         0.0784 
     95 H95       -70.6081   24.0711  -74.7345 H         1 UNK         0.0784 
     96 H96       -73.4638   26.0238  -76.2507 H         1 UNK         0.3213 
     97 H97       -74.0555   26.6867  -79.5573 H         1 UNK         0.0855 
     98 H98       -74.3938   23.7371  -78.7862 H         1 UNK         0.0814 
     99 H99       -73.5735   24.3286  -80.2259 H         1 UNK         0.0814 
    100 H100      -75.3002   24.5840  -80.0382 H         1 UNK         0.0814 
    101 H101      -75.8021   25.4041  -77.6620 H         1 UNK         0.3105 
    102 H102      -76.5867   28.3693  -75.8536 H         1 UNK         0.0547 
    103 H103      -78.0317   28.4751  -77.7937 H         1 UNK         0.0837 
    104 H104      -78.0633   26.7285  -77.9560 H         1 UNK         0.0837 
    105 H105      -78.8552   27.5017  -76.5855 H         1 UNK         0.0837 
    106 H106      -77.6607   25.8976  -75.3892 H         1 UNK         0.3020 
    107 H107      -75.1807   24.4095  -73.2906 H         1 UNK         0.1245 
    108 H108      -77.5207   24.3509  -72.0768 H         1 UNK         0.0781 
    109 H109      -77.8025   25.9044  -72.8076 H         1 UNK         0.0781 
    110 H110      -76.3546   27.9513  -69.8935 H         1 UNK         0.0836 
    111 H111      -77.8643   27.1518  -70.2471 H         1 UNK         0.0836 
    112 H112      -77.7308   23.7409  -74.5901 H         1 UNK         0.3022 
    113 H113      -76.1852   21.6278  -76.9577 H         1 UNK         0.0747 
    114 H114      -77.5656   19.7966  -75.9986 H         1 UNK         0.0793 
    115 H115      -76.1518   20.0752  -74.9968 H         1 UNK         0.0793 
    116 H116      -77.7202   20.6744  -74.4755 H         1 UNK         0.0793 
    117 H117      -78.9221   21.9721  -76.2260 H         1 UNK         0.3047 
    118 H118      -79.5482   24.9949  -77.9610 H         1 UNK         0.0822 
    119 H119      -81.1782   23.5921  -79.1768 H         1 UNK         0.0807 
    120 H120      -80.3402   22.1223  -78.6767 H         1 UNK         0.0807 
    121 H121      -79.5578   23.2616  -79.7633 H         1 UNK         0.0807 
    122 H122      -81.3688   23.3053  -76.6899 H         1 UNK         0.2946 
    123 H123      -82.2863   23.7427  -74.7428 H         1 UNK         0.1144 
    124 H124      -81.6294   23.1176  -72.4175 H         1 UNK         0.0793 
    125 H125      -79.9966   23.7211  -72.6919 H         1 UNK         0.0793 
    126 H126      -80.5845   22.3248  -73.5848 H         1 UNK         0.0793 
    127 H127      -81.2338   25.8335  -72.9394 H         1 UNK         0.2896 
@<TRIPOS>BOND
     1    1    2 1    
     2    1   67 1    
     3    1   68 1    
     4    1   69 1    
     5    2    3 2    
     6    2    4 am   BACKBONE|DICT|INTERRES
     7    4    5 1    
     8    4   70 1    
     9    5    6 1    
    10    5   65 1    
    11    5   71 1    
    12    6    7 1    
    13    6   72 1    
    14    6   73 1    
    15    7    8 1    
    16    8    9 1    
    17    8   74 1    
    18    8   75 1    
    19    9   10 ar   
    20    9   14 ar   
    21   10   11 ar   
    22   10   76 1    
    23   11   12 ar   
    24   11   48 1    
    25   12   13 ar   
    26   12   77 1    
    27   13   14 ar   
    28   13   15 1    
    29   14   78 1    
    30   15   16 1    
    31   15   79 1    
    32   15   80 1    
    33   16   17 1    
    34   17   18 1    
    35   17   81 1    
    36   17   82 1    
    37   18   19 1    
    38   18   22 1    
    39   18   83 1    
    40   19   20 am   BACKBONE|DICT|INTERRES
    41   19   21 2    
    42   20   84 1    
    43   20   85 1    
    44   22   23 am   BACKBONE|DICT|INTERRES
    45   22   86 1    
    46   23   24 2    
    47   23   25 1    
    48   25   26 1    
    49   25   27 1    
    50   25   87 1    
    51   26   88 1    
    52   26   89 1    
    53   26   90 1    
    54   27   28 am   BACKBONE|DICT|INTERRES
    55   27   91 1    
    56   28   29 2    
    57   28   30 1    
    58   30   31 1    
    59   30   32 1    
    60   30   92 1    
    61   31   93 1    
    62   31   94 1    
    63   31   95 1    
    64   32   33 am   BACKBONE|DICT|INTERRES
    65   32   96 1    
    66   33   34 2    
    67   33   35 1    
    68   35   36 1    
    69   35   37 1    
    70   35   97 1    
    71   36   98 1    
    72   36   99 1    
    73   36  100 1    
    74   37   38 am   BACKBONE|DICT|INTERRES
    75   37  101 1    
    76   38   39 2    
    77   38   40 1    
    78   40   41 1    
    79   40   42 1    
    80   40  102 1    
    81   41  103 1    
    82   41  104 1    
    83   41  105 1    
    84   42   43 am   BACKBONE|DICT|INTERRES
    85   42  106 1    
    86   43   44 2    
    87   43   45 1    
    88   45   46 1    
    89   45   49 1    
    90   45  107 1    
    91   46   47 1    
    92   46  108 1    
    93   46  109 1    
    94   47   48 1    
    95   48  110 1    
    96   48  111 1    
    97   49   50 am   BACKBONE|DICT|INTERRES
    98   49  112 1    
    99   50   51 2    
   100   50   52 1    
   101   52   53 1    
   102   52   54 1    
   103   52  113 1    
   104   53  114 1    
   105   53  115 1    
   106   53  116 1    
   107   54   55 am   BACKBONE|DICT|INTERRES
   108   54  117 1    
   109   55   56 2    
   110   55   57 1    
   111   57   58 1    
   112   57   59 1    
   113   57  118 1    
   114   58  119 1    
   115   58  120 1    
   116   58  121 1    
   117   59   60 am   BACKBONE|DICT|INTERRES
   118   59  122 1    
   119   60   61 2    
   120   60   62 1    
   121   62   63 1    
   122   62   64 1    
   123   62  123 1    
   124   63  124 1    
   125   63  125 1    
   126   63  126 1    
   127   64   65 am   BACKBONE|DICT|INTERRES
   128   64  127 1    
   129   65   66 2    
@<TRIPOS>SUBSTRUCTURE
     1 UNK         1 GROUP             0       ****    0 ROOT    
