@<TRIPOS>MOLECULE
3R135
127   129    1
SMALL
USER_CHARGES


@<TRIPOS>ATOM
      1 CA        -82.5539   22.6753  -70.4828 C.3       0 UNK        -0.1998 
      2 C         -82.6632   24.1291  -70.9178 C.2       0 UNK         0.4909 
      3 O         -83.3478   24.9156  -70.2622 O.2       0 UNK        -0.5240 
      4 N         -81.9989   24.4883  -72.0200 N.am      1 UNK        -0.4739 
      5 CA        -81.9712   25.8396  -72.5799 C.3       1 UNK         0.0864 
      6 C6        -81.0069   26.8134  -71.8421 C.3       11 UNK        -0.0881 
      7 S7        -79.3344   26.1662  -71.4714 S.3       11 UNK        -0.2682 
      8 C8        -78.6332   27.5029  -70.4442 C.3       11 UNK         0.0289 
      9 C9        -77.7864   28.4649  -71.2676 C.ar      11 UNK        -0.0687 
     10 C10       -78.3970   29.3254  -72.1819 C.ar      11 UNK        -0.0823 
     11 C11       -77.6305   30.1536  -73.0027 C.ar      11 UNK        -0.0830 
     12 C12       -76.2413   30.1715  -72.8587 C.ar      11 UNK        -0.1021 
     13 C13       -75.6167   29.3496  -71.9155 C.ar      11 UNK        -0.0753 
     14 C14       -76.3933   28.4882  -71.1313 C.ar      11 UNK        -0.0933 
     15 C15       -74.1013   29.3656  -71.7815 C.3       11 UNK         0.0166 
     16 S16       -73.4875   30.9909  -71.2434 S.3       11 UNK        -0.2615 
     17 C17       -71.6829   30.7243  -71.2731 C.3       11 UNK        -0.0865 
     18 CA        -71.0422   31.1708  -72.6137 C.3       10 UNK         0.0862 
     19 C         -69.5068   31.3134  -72.4673 C.2       10 UNK         0.5551 
     20 N         -69.0039   32.5343  -72.3491 N.am      10 UNK        -0.7319 
     21 O         -68.7731   30.3278  -72.4201 O.2       10 UNK        -0.5018 
     22 N         -71.3406   30.2148  -73.6851 N.am      10 UNK        -0.4509 
     23 C         -71.8253   30.5057  -74.8946 C.2       10 UNK         0.4899 
     24 O         -72.1441   31.6415  -75.2475 O.2       10 UNK        -0.4839 
     25 CA        -71.9927   29.3450  -75.8966 C.3       9 UNK         0.0222 
     26 CB        -70.7379   29.1924  -76.7774 C.3       9 UNK        -0.1966 
     27 N         -72.3997   28.0521  -75.3217 N.am      9 UNK        -0.4218 
     28 C         -71.7225   27.2401  -74.4949 C.2       9 UNK         0.5020 
     29 O         -70.6158   27.5058  -74.0248 O.2       9 UNK        -0.5274 
     30 CA        -72.3918   25.9132  -74.1040 C.3       8 UNK         0.0270 
     31 CB        -73.3155   26.1028  -72.8911 C.3       8 UNK        -0.1976 
     32 N         -73.1408   25.3023  -75.2033 N.am      8 UNK        -0.4313 
     33 C         -72.5750   24.6796  -76.2469 C.2       8 UNK         0.5041 
     34 O         -71.3583   24.5483  -76.3898 O.2       8 UNK        -0.5577 
     35 CA        -73.5217   24.0968  -77.3102 C.3       7 UNK         0.0284 
     36 CB        -74.1513   22.7823  -76.8223 C.3       7 UNK        -0.1958 
     37 N         -74.5745   25.0334  -77.7045 N.am      7 UNK        -0.4454 
     38 C         -74.3613   26.1692  -78.3835 C.2       7 UNK         0.5089 
     39 O         -73.2586   26.5300  -78.7954 O.2       7 UNK        -0.5125 
     40 CA        -75.5855   27.0638  -78.6378 C.3       6 UNK         0.0408 
     41 CB        -76.3237   26.6281  -79.9134 C.3       6 UNK        -0.1791 
     42 N         -76.5206   27.0862  -77.5112 N.am      6 UNK        -0.4762 
     43 C         -76.2476   27.6169  -76.3102 C.2       6 UNK         0.5007 
     44 O         -75.1644   28.1223  -76.0143 O.2       6 UNK        -0.5032 
     45 CA        -77.3631   27.5231  -75.2475 C.3       5 UNK         0.0783 
     46 C46       -78.5326   28.5095  -75.5315 C.3       11 UNK        -0.0857 
     47 S47       -78.0272   30.2603  -75.7400 S.3       11 UNK        -0.2512 
     48 C48       -78.3071   30.9759  -74.0867 C.3       11 UNK         0.0225 
     49 N         -77.8458   26.1452  -75.0887 N.am      5 UNK        -0.4615 
     50 C         -77.0744   25.0848  -74.7990 C.2       4 UNK         0.5053 
     51 O         -75.8710   25.1579  -74.5601 O.2       4 UNK        -0.5105 
     52 CA        -77.7230   23.6920  -74.8586 C.3       4 UNK         0.0263 
     53 CB        -78.3920   23.3293  -73.5260 C.3       4 UNK        -0.1981 
     54 N         -78.6912   23.5481  -75.9440 N.am      4 UNK        -0.4224 
     55 C         -78.4569   23.7265  -77.2498 C.2       3 UNK         0.4895 
     56 O         -77.3488   23.9999  -77.7120 O.2       3 UNK        -0.5091 
     57 CA        -79.6664   23.6296  -78.2011 C.3       3 UNK         0.0250 
     58 CB        -79.9184   22.1717  -78.6318 C.3       3 UNK        -0.1996 
     59 N         -80.8917   24.2712  -77.6898 N.am      3 UNK        -0.4254 
     60 C         -81.6329   23.9289  -76.6253 C.2       2 UNK         0.5004 
     61 O         -81.4331   22.9273  -75.9330 O.2       2 UNK        -0.5226 
     62 CA        -82.7565   24.8978  -76.2279 C.3       2 UNK         0.0269 
     63 CB        -84.1254   24.3425  -76.6522 C.3       2 UNK        -0.1926 
     64 N         -82.7580   25.1438  -74.7821 N.am      2 UNK        -0.4687 
     65 C         -81.7663   25.7391  -74.1016 C.2       1 UNK         0.5165 
     66 O         -80.7349   26.1589  -74.6307 O.2       1 UNK        -0.5079 
     67 H67       -82.1314   22.6154  -69.4801 H         1 UNK         0.0900 
     68 H68       -83.5405   22.2131  -70.4657 H         1 UNK         0.0900 
     69 H69       -81.9190   22.0958  -71.1528 H         1 UNK         0.0900 
     70 H70       -81.4656   23.8008  -72.5343 H         1 UNK         0.2959 
     71 H71       -82.9719   26.2648  -72.4699 H         1 UNK         0.1079 
     72 H72       -80.9235   27.7404  -72.4071 H         1 UNK         0.0837 
     73 H73       -81.4619   27.0925  -70.8906 H         1 UNK         0.0837 
     74 H74       -78.0291   27.0486  -69.6576 H         1 UNK         0.0685 
     75 H75       -79.4287   28.0500  -69.9366 H         1 UNK         0.0685 
     76 H76       -79.4703   29.3225  -72.2887 H         1 UNK         0.1434 
     77 H77       -75.6425   30.8089  -73.4956 H         1 UNK         0.1329 
     78 H78       -75.9130   27.8289  -70.4214 H         1 UNK         0.1335 
     79 H79       -73.6646   29.1142  -72.7474 H         1 UNK         0.0680 
     80 H80       -73.7658   28.6070  -71.0732 H         1 UNK         0.0680 
     81 H81       -71.4501   29.6806  -71.0527 H         1 UNK         0.1032 
     82 H82       -71.2702   31.3022  -70.4435 H         1 UNK         0.1032 
     83 H83       -71.4467   32.1519  -72.8716 H         1 UNK         0.0461 
     84 H84       -68.0081   32.6460  -72.2377 H         1 UNK         0.3453 
     85 H85       -69.5991   33.3480  -72.3754 H         1 UNK         0.3453 
     86 H86       -71.0011   29.2669  -73.5404 H         1 UNK         0.2984 
     87 H87       -72.8151   29.6291  -76.5550 H         1 UNK         0.0554 
     88 H88       -70.5055   30.1273  -77.2889 H         1 UNK         0.0847 
     89 H89       -70.8844   28.4308  -77.5438 H         1 UNK         0.0847 
     90 H90       -69.8596   28.9167  -76.1929 H         1 UNK         0.0847 
     91 H91       -73.3466   27.7788  -75.5778 H         1 UNK         0.3141 
     92 H92       -71.5984   25.2220  -73.8109 H         1 UNK         0.0743 
     93 H93       -72.7760   26.5469  -72.0539 H         1 UNK         0.0784 
     94 H94       -74.1613   26.7502  -73.1257 H         1 UNK         0.0784 
     95 H95       -73.7164   25.1489  -72.5480 H         1 UNK         0.0784 
     96 H96       -74.1579   25.3226  -75.1273 H         1 UNK         0.3213 
     97 H97       -72.9265   23.8749  -78.1988 H         1 UNK         0.0855 
     98 H98       -74.7384   22.9279  -75.9161 H         1 UNK         0.0814 
     99 H99       -73.3813   22.0440  -76.5951 H         1 UNK         0.0814 
    100 H100      -74.8051   22.3486  -77.5794 H         1 UNK         0.0814 
    101 H101      -75.5310   24.7882  -77.4648 H         1 UNK         0.3105 
    102 H102      -75.2237   28.0832  -78.7884 H         1 UNK         0.0547 
    103 H103      -76.7264   25.6185  -79.8255 H         1 UNK         0.0837 
    104 H104      -75.6515   26.6353  -80.7725 H         1 UNK         0.0837 
    105 H105      -77.1494   27.3010  -80.1447 H         1 UNK         0.0837 
    106 H106      -77.4111   26.6305  -77.6476 H         1 UNK         0.3020 
    107 H107      -76.9077   27.7956  -74.2942 H         1 UNK         0.1245 
    108 H108      -79.2736   28.4479  -74.7339 H         1 UNK         0.0781 
    109 H109      -79.0608   28.2097  -76.4382 H         1 UNK         0.0781 
    110 H110      -79.3807   31.0515  -73.9070 H         1 UNK         0.0836 
    111 H111      -77.9203   31.9958  -74.0679 H         1 UNK         0.0836 
    112 H112      -78.8486   26.0080  -75.1755 H         1 UNK         0.3022 
    113 H113      -76.9261   22.9694  -75.0403 H         1 UNK         0.0747 
    114 H114      -79.2787   23.9362  -73.3489 H         1 UNK         0.0793 
    115 H115      -78.6952   22.2825  -73.5074 H         1 UNK         0.0793 
    116 H116      -77.7120   23.4868  -72.6874 H         1 UNK         0.0793 
    117 H117      -79.6444   23.3050  -75.6844 H         1 UNK         0.3047 
    118 H118      -79.3951   24.1894  -79.0978 H         1 UNK         0.0822 
    119 H119      -80.7336   22.1067  -79.3523 H         1 UNK         0.0807 
    120 H120      -80.1660   21.5293  -77.7864 H         1 UNK         0.0807 
    121 H121      -79.0315   21.7502  -79.1069 H         1 UNK         0.0807 
    122 H122      -81.1435   25.1238  -78.1714 H         1 UNK         0.2946 
    123 H123      -82.5963   25.8555  -76.7286 H         1 UNK         0.1144 
    124 H124      -84.9294   25.0377  -76.4098 H         1 UNK         0.0793 
    125 H125      -84.3439   23.3917  -76.1640 H         1 UNK         0.0793 
    126 H126      -84.1607   24.1711  -77.7290 H         1 UNK         0.0793 
    127 H127      -83.5453   24.7800  -74.2648 H         1 UNK         0.2896 
@<TRIPOS>BOND
     1    1    2 1    
     2    1   67 1    
     3    1   68 1    
     4    1   69 1    
     5    2    3 2    
     6    2    4 am   BACKBONE|DICT|INTERRES
     7    4    5 1    
     8    4   70 1    
     9    5    6 1    
    10    5   65 1    
    11    5   71 1    
    12    6    7 1    
    13    6   72 1    
    14    6   73 1    
    15    7    8 1    
    16    8    9 1    
    17    8   74 1    
    18    8   75 1    
    19    9   10 ar   
    20    9   14 ar   
    21   10   11 ar   
    22   10   76 1    
    23   11   12 ar   
    24   11   48 1    
    25   12   13 ar   
    26   12   77 1    
    27   13   14 ar   
    28   13   15 1    
    29   14   78 1    
    30   15   16 1    
    31   15   79 1    
    32   15   80 1    
    33   16   17 1    
    34   17   18 1    
    35   17   81 1    
    36   17   82 1    
    37   18   19 1    
    38   18   22 1    
    39   18   83 1    
    40   19   20 am   BACKBONE|DICT|INTERRES
    41   19   21 2    
    42   20   84 1    
    43   20   85 1    
    44   22   23 am   BACKBONE|DICT|INTERRES
    45   22   86 1    
    46   23   24 2    
    47   23   25 1    
    48   25   26 1    
    49   25   27 1    
    50   25   87 1    
    51   26   88 1    
    52   26   89 1    
    53   26   90 1    
    54   27   28 am   BACKBONE|DICT|INTERRES
    55   27   91 1    
    56   28   29 2    
    57   28   30 1    
    58   30   31 1    
    59   30   32 1    
    60   30   92 1    
    61   31   93 1    
    62   31   94 1    
    63   31   95 1    
    64   32   33 am   BACKBONE|DICT|INTERRES
    65   32   96 1    
    66   33   34 2    
    67   33   35 1    
    68   35   36 1    
    69   35   37 1    
    70   35   97 1    
    71   36   98 1    
    72   36   99 1    
    73   36  100 1    
    74   37   38 am   BACKBONE|DICT|INTERRES
    75   37  101 1    
    76   38   39 2    
    77   38   40 1    
    78   40   41 1    
    79   40   42 1    
    80   40  102 1    
    81   41  103 1    
    82   41  104 1    
    83   41  105 1    
    84   42   43 am   BACKBONE|DICT|INTERRES
    85   42  106 1    
    86   43   44 2    
    87   43   45 1    
    88   45   46 1    
    89   45   49 1    
    90   45  107 1    
    91   46   47 1    
    92   46  108 1    
    93   46  109 1    
    94   47   48 1    
    95   48  110 1    
    96   48  111 1    
    97   49   50 am   BACKBONE|DICT|INTERRES
    98   49  112 1    
    99   50   51 2    
   100   50   52 1    
   101   52   53 1    
   102   52   54 1    
   103   52  113 1    
   104   53  114 1    
   105   53  115 1    
   106   53  116 1    
   107   54   55 am   BACKBONE|DICT|INTERRES
   108   54  117 1    
   109   55   56 2    
   110   55   57 1    
   111   57   58 1    
   112   57   59 1    
   113   57  118 1    
   114   58  119 1    
   115   58  120 1    
   116   58  121 1    
   117   59   60 am   BACKBONE|DICT|INTERRES
   118   59  122 1    
   119   60   61 2    
   120   60   62 1    
   121   62   63 1    
   122   62   64 1    
   123   62  123 1    
   124   63  124 1    
   125   63  125 1    
   126   63  126 1    
   127   64   65 am   BACKBONE|DICT|INTERRES
   128   64  127 1    
   129   65   66 2    
@<TRIPOS>SUBSTRUCTURE
     1 UNK         1 GROUP             0       ****    0 ROOT    
