@<TRIPOS>MOLECULE
3R135
127   129    1
SMALL
USER_CHARGES


@<TRIPOS>ATOM
      1 CA        -73.7464   24.9293  -70.2186 C.3       0 UNK        -0.1998 
      2 C         -75.2612   25.0046  -70.1045 C.2       0 UNK         0.4909 
      3 O         -75.8653   24.1544  -69.4490 O.2       0 UNK        -0.5240 
      4 N         -75.8753   26.0273  -70.7127 N.am      1 UNK        -0.4739 
      5 CA        -77.3231   26.2602  -70.6923 C.3       1 UNK         0.0864 
      6 C6        -77.6740   27.6935  -71.1618 C.3       11 UNK        -0.0881 
      7 S7        -79.0579   28.4225  -70.2207 S.3       11 UNK        -0.2682 
      8 C8        -80.4410   28.3629  -71.4134 C.3       11 UNK         0.0289 
      9 C9        -80.1825   29.0670  -72.7451 C.ar      11 UNK        -0.0687 
     10 C10       -80.8041   28.5767  -73.8964 C.ar      11 UNK        -0.0823 
     11 C11       -80.5680   29.1635  -75.1418 C.ar      11 UNK        -0.0830 
     12 C12       -79.6992   30.2533  -75.2374 C.ar      11 UNK        -0.1021 
     13 C13       -79.0667   30.7527  -74.0969 C.ar      11 UNK        -0.0753 
     14 C14       -79.3360   30.1776  -72.8513 C.ar      11 UNK        -0.0933 
     15 C15       -78.0587   31.8853  -74.2195 C.3       11 UNK         0.0166 
     16 S16       -76.4502   31.2709  -74.8187 S.3       11 UNK        -0.2615 
     17 C17       -75.9671   30.1384  -73.4694 C.3       11 UNK        -0.0865 
     18 CA        -74.4539   30.1854  -73.1516 C.3       10 UNK         0.0862 
     19 C         -74.1320   29.3123  -71.9112 C.2       10 UNK         0.5551 
     20 N         -73.7490   29.9211  -70.7982 N.am      10 UNK        -0.7319 
     21 O         -74.2832   28.0927  -71.9393 O.2       10 UNK        -0.5018 
     22 N         -73.6451   29.7570  -74.2971 N.am      10 UNK        -0.4509 
     23 C         -72.3458   30.0466  -74.4464 C.2       10 UNK         0.4899 
     24 O         -71.7275   30.8187  -73.7110 O.2       10 UNK        -0.4839 
     25 CA        -71.6202   29.3423  -75.6090 C.3       9 UNK         0.0222 
     26 CB        -70.0877   29.5230  -75.5727 C.3       9 UNK        -0.1966 
     27 N         -71.9814   27.9240  -75.7033 N.am      9 UNK        -0.4218 
     28 C         -71.8241   26.9725  -74.7673 C.2       9 UNK         0.5020 
     29 O         -71.2136   27.1431  -73.7113 O.2       9 UNK        -0.5274 
     30 CA        -72.4708   25.5996  -75.0352 C.3       8 UNK         0.0270 
     31 CB        -73.5314   25.2855  -73.9671 C.3       8 UNK        -0.1976 
     32 N         -73.0950   25.5243  -76.3577 N.am      8 UNK        -0.4313 
     33 C         -72.4778   25.1003  -77.4694 C.2       8 UNK         0.5041 
     34 O         -71.3517   24.6027  -77.4817 O.2       8 UNK        -0.5577 
     35 CA        -73.2243   25.3015  -78.8007 C.3       7 UNK         0.0284 
     36 CB        -73.9451   24.0097  -79.2185 C.3       7 UNK        -0.1958 
     37 N         -74.1714   26.4247  -78.7578 N.am      7 UNK        -0.4454 
     38 C         -73.7898   27.7116  -78.6970 C.2       7 UNK         0.5089 
     39 O         -72.6112   28.0636  -78.7041 O.2       7 UNK        -0.5125 
     40 CA        -74.8730   28.7955  -78.5490 C.3       6 UNK         0.0408 
     41 CB        -75.1691   29.4456  -79.9090 C.3       6 UNK        -0.1791 
     42 N         -76.1237   28.3173  -77.9611 N.am      6 UNK        -0.4762 
     43 C         -76.2689   27.8416  -76.7159 C.2       6 UNK         0.5007 
     44 O         -75.3363   27.7637  -75.9111 O.2       6 UNK        -0.5032 
     45 CA        -77.6688   27.3095  -76.3238 C.3       5 UNK         0.0783 
     46 C46       -78.7693   27.6145  -77.3877 C.3       11 UNK        -0.0857 
     47 S47       -80.4301   27.0380  -76.8962 S.3       11 UNK        -0.2512 
     48 C48       -81.2276   28.5913  -76.3852 C.3       11 UNK         0.0225 
     49 N         -77.5976   25.8817  -75.9894 N.am      5 UNK        -0.4615 
     50 C         -77.1839   24.9038  -76.8081 C.2       4 UNK         0.5053 
     51 O         -76.7214   25.0977  -77.9331 O.2       4 UNK        -0.5105 
     52 CA        -77.3330   23.4633  -76.2967 C.3       4 UNK         0.0263 
     53 CB        -76.1403   23.0686  -75.4140 C.3       4 UNK        -0.1981 
     54 N         -78.5831   23.2590  -75.5603 N.am      4 UNK        -0.4224 
     55 C         -79.7977   23.2193  -76.1313 C.2       3 UNK         0.4895 
     56 O         -79.9776   23.3113  -77.3464 O.2       3 UNK        -0.5091 
     57 CA        -81.0213   23.0073  -75.2182 C.3       3 UNK         0.0250 
     58 CB        -81.7612   21.7107  -75.5926 C.3       3 UNK        -0.1996 
     59 N         -80.6785   22.9537  -73.7950 N.am      3 UNK        -0.4254 
     60 C         -80.5750   24.0179  -72.9893 C.2       2 UNK         0.5004 
     61 O         -80.8113   25.1711  -73.3513 O.2       2 UNK        -0.5226 
     62 CA        -80.1459   23.7519  -71.5303 C.3       2 UNK         0.0269 
     63 CB        -79.5125   22.3584  -71.3051 C.3       2 UNK        -0.1926 
     64 N         -79.2573   24.7924  -70.9975 N.am      2 UNK        -0.4687 
     65 C         -78.0824   25.1919  -71.5076 C.2       1 UNK         0.5165 
     66 O         -77.6029   24.7683  -72.5644 O.2       1 UNK        -0.5079 
     67 H67       -73.3250   25.8487  -70.6247 H         1 UNK         0.0900 
     68 H68       -73.4592   24.1008  -70.8653 H         1 UNK         0.0900 
     69 H69       -73.3032   24.7648  -69.2369 H         1 UNK         0.0900 
     70 H70       -75.3220   26.6969  -71.2436 H         1 UNK         0.2959 
     71 H71       -77.6213   26.1551  -69.6463 H         1 UNK         0.1079 
     72 H72       -77.8542   27.7363  -72.2376 H         1 UNK         0.0837 
     73 H73       -76.8301   28.3604  -70.9854 H         1 UNK         0.0837 
     74 H74       -80.6894   27.3153  -71.5888 H         1 UNK         0.0685 
     75 H75       -81.3186   28.8139  -70.9490 H         1 UNK         0.0685 
     76 H76       -81.4578   27.7170  -73.8304 H         1 UNK         0.1434 
     77 H77       -79.4911   30.6978  -76.2012 H         1 UNK         0.1329 
     78 H78       -78.8544   30.5747  -71.9691 H         1 UNK         0.1335 
     79 H79       -78.4339   32.6371  -74.9154 H         1 UNK         0.0680 
     80 H80       -77.9235   32.3926  -73.2629 H         1 UNK         0.0680 
     81 H81       -76.2790   29.1264  -73.7331 H         1 UNK         0.1032 
     82 H82       -76.5284   30.4057  -72.5733 H         1 UNK         0.1032 
     83 H83       -74.2000   31.2230  -72.9232 H         1 UNK         0.0461 
     84 H84       -73.5521   29.3672  -69.9800 H         1 UNK         0.3453 
     85 H85       -73.6246   30.9210  -70.7679 H         1 UNK         0.3453 
     86 H86       -74.0827   29.0827  -74.9154 H         1 UNK         0.2984 
     87 H87       -71.9847   29.8117  -76.5237 H         1 UNK         0.0554 
     88 H88       -69.6103   29.0257  -76.4169 H         1 UNK         0.0847 
     89 H89       -69.6524   29.1225  -74.6567 H         1 UNK         0.0847 
     90 H90       -69.8182   30.5785  -75.6248 H         1 UNK         0.0847 
     91 H91       -72.4460   27.6630  -76.5630 H         1 UNK         0.3141 
     92 H92       -71.6789   24.8520  -74.9539 H         1 UNK         0.0743 
     93 H93       -74.4024   25.9377  -74.0473 H         1 UNK         0.0784 
     94 H94       -73.8672   24.2523  -74.0378 H         1 UNK         0.0784 
     95 H95       -73.1226   25.4170  -72.9663 H         1 UNK         0.0784 
     96 H96       -74.0133   25.9432  -76.4411 H         1 UNK         0.3213 
     97 H97       -72.4762   25.5270  -79.5641 H         1 UNK         0.0855 
     98 H98       -74.6308   23.6568  -78.4486 H         1 UNK         0.0814 
     99 H99       -73.2264   23.2088  -79.3968 H         1 UNK         0.0814 
    100 H100      -74.5123   24.1470  -80.1392 H         1 UNK         0.0814 
    101 H101      -75.1583   26.1898  -78.6975 H         1 UNK         0.3105 
    102 H102      -74.4730   29.5649  -77.8848 H         1 UNK         0.0547 
    103 H103      -74.2573   29.8414  -80.3589 H         1 UNK         0.0837 
    104 H104      -75.5961   28.7318  -80.6146 H         1 UNK         0.0837 
    105 H105      -75.8648   30.2788  -79.8089 H         1 UNK         0.0837 
    106 H106      -76.9280   28.3117  -78.5713 H         1 UNK         0.3020 
    107 H107      -77.9365   27.8309  -75.4033 H         1 UNK         0.1245 
    108 H108      -78.8185   28.6840  -77.5985 H         1 UNK         0.0781 
    109 H109      -78.5381   27.1268  -78.3364 H         1 UNK         0.0781 
    110 H110      -81.2025   29.3068  -77.2087 H         1 UNK         0.0836 
    111 H111      -82.2817   28.3978  -76.1811 H         1 UNK         0.0836 
    112 H112      -77.9347   25.6262  -75.0714 H         1 UNK         0.3022 
    113 H113      -77.3386   22.8050  -77.1682 H         1 UNK         0.0747 
    114 H114      -76.1877   22.0170  -75.1311 H         1 UNK         0.0793 
    115 H115      -75.1966   23.2200  -75.9398 H         1 UNK         0.0793 
    116 H116      -76.1065   23.6595  -74.4986 H         1 UNK         0.0793 
    117 H117      -78.5181   23.2057  -74.5536 H         1 UNK         0.3047 
    118 H118      -81.6983   23.8467  -75.3935 H         1 UNK         0.0822 
    119 H119      -82.6552   21.5740  -74.9837 H         1 UNK         0.0807 
    120 H120      -81.1281   20.8319  -75.4636 H         1 UNK         0.0807 
    121 H121      -82.0836   21.7295  -76.6346 H         1 UNK         0.0807 
    122 H122      -80.4718   22.0407  -73.4152 H         1 UNK         0.2946 
    123 H123      -81.0627   23.7994  -70.9402 H         1 UNK         0.1144 
    124 H124      -80.2179   21.5550  -71.5205 H         1 UNK         0.0793 
    125 H125      -79.2067   22.2328  -70.2662 H         1 UNK         0.0793 
    126 H126      -78.6279   22.2064  -71.9252 H         1 UNK         0.0793 
    127 H127      -79.5836   25.2447  -70.1548 H         1 UNK         0.2896 
@<TRIPOS>BOND
     1    1    2 1    
     2    1   67 1    
     3    1   68 1    
     4    1   69 1    
     5    2    3 2    
     6    2    4 am   BACKBONE|DICT|INTERRES
     7    4    5 1    
     8    4   70 1    
     9    5    6 1    
    10    5   65 1    
    11    5   71 1    
    12    6    7 1    
    13    6   72 1    
    14    6   73 1    
    15    7    8 1    
    16    8    9 1    
    17    8   74 1    
    18    8   75 1    
    19    9   10 ar   
    20    9   14 ar   
    21   10   11 ar   
    22   10   76 1    
    23   11   12 ar   
    24   11   48 1    
    25   12   13 ar   
    26   12   77 1    
    27   13   14 ar   
    28   13   15 1    
    29   14   78 1    
    30   15   16 1    
    31   15   79 1    
    32   15   80 1    
    33   16   17 1    
    34   17   18 1    
    35   17   81 1    
    36   17   82 1    
    37   18   19 1    
    38   18   22 1    
    39   18   83 1    
    40   19   20 am   BACKBONE|DICT|INTERRES
    41   19   21 2    
    42   20   84 1    
    43   20   85 1    
    44   22   23 am   BACKBONE|DICT|INTERRES
    45   22   86 1    
    46   23   24 2    
    47   23   25 1    
    48   25   26 1    
    49   25   27 1    
    50   25   87 1    
    51   26   88 1    
    52   26   89 1    
    53   26   90 1    
    54   27   28 am   BACKBONE|DICT|INTERRES
    55   27   91 1    
    56   28   29 2    
    57   28   30 1    
    58   30   31 1    
    59   30   32 1    
    60   30   92 1    
    61   31   93 1    
    62   31   94 1    
    63   31   95 1    
    64   32   33 am   BACKBONE|DICT|INTERRES
    65   32   96 1    
    66   33   34 2    
    67   33   35 1    
    68   35   36 1    
    69   35   37 1    
    70   35   97 1    
    71   36   98 1    
    72   36   99 1    
    73   36  100 1    
    74   37   38 am   BACKBONE|DICT|INTERRES
    75   37  101 1    
    76   38   39 2    
    77   38   40 1    
    78   40   41 1    
    79   40   42 1    
    80   40  102 1    
    81   41  103 1    
    82   41  104 1    
    83   41  105 1    
    84   42   43 am   BACKBONE|DICT|INTERRES
    85   42  106 1    
    86   43   44 2    
    87   43   45 1    
    88   45   46 1    
    89   45   49 1    
    90   45  107 1    
    91   46   47 1    
    92   46  108 1    
    93   46  109 1    
    94   47   48 1    
    95   48  110 1    
    96   48  111 1    
    97   49   50 am   BACKBONE|DICT|INTERRES
    98   49  112 1    
    99   50   51 2    
   100   50   52 1    
   101   52   53 1    
   102   52   54 1    
   103   52  113 1    
   104   53  114 1    
   105   53  115 1    
   106   53  116 1    
   107   54   55 am   BACKBONE|DICT|INTERRES
   108   54  117 1    
   109   55   56 2    
   110   55   57 1    
   111   57   58 1    
   112   57   59 1    
   113   57  118 1    
   114   58  119 1    
   115   58  120 1    
   116   58  121 1    
   117   59   60 am   BACKBONE|DICT|INTERRES
   118   59  122 1    
   119   60   61 2    
   120   60   62 1    
   121   62   63 1    
   122   62   64 1    
   123   62  123 1    
   124   63  124 1    
   125   63  125 1    
   126   63  126 1    
   127   64   65 am   BACKBONE|DICT|INTERRES
   128   64  127 1    
   129   65   66 2    
@<TRIPOS>SUBSTRUCTURE
     1 UNK         1 GROUP             0       ****    0 ROOT    
