@<TRIPOS>MOLECULE
3R135
127   129    1
SMALL
USER_CHARGES


@<TRIPOS>ATOM
      1 CA        -78.1373   32.3446  -74.6753 C.3       0 UNK        -0.1998 
      2 C         -78.5725   30.9832  -74.1551 C.2       0 UNK         0.4909 
      3 O         -78.0127   30.4992  -73.1736 O.2       0 UNK        -0.5240 
      4 N         -79.5648   30.3660  -74.8038 N.am      1 UNK        -0.4739 
      5 CA        -80.0460   29.0164  -74.5207 C.3       1 UNK         0.0864 
      6 C6        -80.9916   28.9402  -73.2890 C.3       11 UNK        -0.0881 
      7 S7        -81.3722   27.2142  -72.8046 S.3       11 UNK        -0.2682 
      8 C8        -80.8302   27.1349  -71.0676 C.3       11 UNK         0.0289 
      9 C9        -79.3779   26.6984  -70.9089 C.ar      11 UNK        -0.0687 
     10 C10       -79.0703   25.4388  -70.3798 C.ar      11 UNK        -0.0823 
     11 C11       -77.7423   25.0771  -70.1240 C.ar      11 UNK        -0.0830 
     12 C12       -76.7171   25.9776  -70.4257 C.ar      11 UNK        -0.1021 
     13 C13       -77.0084   27.2221  -70.9888 C.ar      11 UNK        -0.0753 
     14 C14       -78.3391   27.5791  -71.2205 C.ar      11 UNK        -0.0933 
     15 C15       -75.8875   28.1950  -71.3129 C.3       11 UNK         0.0166 
     16 S16       -74.8676   27.5904  -72.6890 S.3       11 UNK        -0.2615 
     17 C17       -73.9460   29.1066  -73.1146 C.3       11 UNK        -0.0865 
     18 CA        -74.4425   29.7502  -74.4326 C.3       10 UNK         0.0862 
     19 C         -73.7092   31.0951  -74.6861 C.2       10 UNK         0.5551 
     20 N         -72.5074   31.0746  -75.2480 N.am      10 UNK        -0.7319 
     21 O         -74.2325   32.1594  -74.3665 O.2       10 UNK        -0.5018 
     22 N         -74.3516   28.8189  -75.5669 N.am      10 UNK        -0.4509 
     23 C         -74.9238   29.0162  -76.7607 C.2       10 UNK         0.4899 
     24 O         -75.6455   29.9780  -77.0304 O.2       10 UNK        -0.4839 
     25 CA        -74.6297   27.9424  -77.8241 C.3       9 UNK         0.0222 
     26 CB        -75.2900   28.2278  -79.1902 C.3       9 UNK        -0.1966 
     27 N         -73.1900   27.6968  -77.9548 N.am      9 UNK        -0.4218 
     28 C         -72.2465   28.5537  -78.3767 C.2       9 UNK         0.5020 
     29 O         -72.4832   29.6743  -78.8312 O.2       9 UNK        -0.5274 
     30 CA        -70.7858   28.0624  -78.2745 C.3       8 UNK         0.0270 
     31 CB        -69.7616   29.2178  -78.3154 C.3       8 UNK        -0.1976 
     32 N         -70.5412   27.1912  -77.1149 N.am      8 UNK        -0.4313 
     33 C         -70.7026   27.5056  -75.8201 C.2       8 UNK         0.5041 
     34 O         -71.0770   28.6098  -75.4208 O.2       8 UNK        -0.5577 
     35 CA        -70.4418   26.3627  -74.8179 C.3       7 UNK         0.0284 
     36 CB        -70.7761   26.7428  -73.3608 C.3       7 UNK        -0.1958 
     37 N         -71.1212   25.1068  -75.1700 N.am      7 UNK        -0.4454 
     38 C         -72.4281   24.9332  -75.4259 C.2       7 UNK         0.5089 
     39 O         -73.2414   25.8557  -75.5165 O.2       7 UNK        -0.5125 
     40 CA        -72.9220   23.4902  -75.6568 C.3       6 UNK         0.0408 
     41 CB        -71.8363   22.3994  -75.5055 C.3       6 UNK        -0.1791 
     42 N         -74.0879   23.1904  -74.8197 N.am      6 UNK        -0.4762 
     43 C         -74.1522   23.1766  -73.4789 C.2       6 UNK         0.5007 
     44 O         -73.1796   23.3475  -72.7414 O.2       6 UNK        -0.5032 
     45 CA        -75.5555   22.9558  -72.8732 C.3       5 UNK         0.0783 
     46 C46       -75.5274   22.7466  -71.3380 C.3       11 UNK        -0.0857 
     47 S47       -77.1874   22.3927  -70.6602 S.3       11 UNK        -0.2512 
     48 C48       -77.4202   23.7436  -69.4606 C.3       11 UNK         0.0225 
     49 N         -76.4434   24.0545  -73.2603 N.am      5 UNK        -0.4615 
     50 C         -77.0952   24.1307  -74.4231 C.2       4 UNK         0.5053 
     51 O         -76.9990   23.2879  -75.3195 O.2       4 UNK        -0.5105 
     52 CA        -77.9411   25.3906  -74.6505 C.3       4 UNK         0.0263 
     53 CB        -77.1469   26.3731  -75.5264 C.3       4 UNK        -0.1981 
     54 N         -79.2243   25.1004  -75.2952 N.am      4 UNK        -0.4224 
     55 C         -80.1703   24.2711  -74.8260 C.2       3 UNK         0.4895 
     56 O         -80.0897   23.6611  -73.7588 O.2       3 UNK        -0.5091 
     57 CA        -81.4421   24.1591  -75.6816 C.3       3 UNK         0.0250 
     58 CB        -82.5281   23.2703  -75.0458 C.3       3 UNK        -0.1996 
     59 N         -81.9704   25.5052  -75.8743 N.am      3 UNK        -0.4254 
     60 C         -82.3017   26.0659  -77.0435 C.2       2 UNK         0.5004 
     61 O         -82.3266   25.4635  -78.1168 O.2       2 UNK        -0.5226 
     62 CA        -82.6267   27.5717  -77.0078 C.3       2 UNK         0.0269 
     63 CB        -84.1430   27.7946  -76.8910 C.3       2 UNK        -0.1926 
     64 N         -81.9480   28.2645  -75.9052 N.am      2 UNK        -0.4687 
     65 C         -80.6233   28.4651  -75.8379 C.2       1 UNK         0.5165 
     66 O         -79.8576   28.2154  -76.7694 O.2       1 UNK        -0.5079 
     67 H67       -77.1019   32.2993  -75.0130 H         1 UNK         0.0900 
     68 H68       -78.2051   33.0891  -73.8827 H         1 UNK         0.0900 
     69 H69       -78.7526   32.6794  -75.5101 H         1 UNK         0.0900 
     70 H70       -79.9677   30.7970  -75.6255 H         1 UNK         0.2959 
     71 H71       -79.1755   28.3983  -74.2929 H         1 UNK         0.1079 
     72 H72       -81.9232   29.4787  -73.4697 H         1 UNK         0.0837 
     73 H73       -80.5308   29.4519  -72.4440 H         1 UNK         0.0837 
     74 H74       -80.9823   28.0996  -70.5817 H         1 UNK         0.0685 
     75 H75       -81.4857   26.4362  -70.5456 H         1 UNK         0.0685 
     76 H76       -79.8674   24.7513  -70.1315 H         1 UNK         0.1434 
     77 H77       -75.6880   25.7211  -70.2156 H         1 UNK         0.1329 
     78 H78       -78.5674   28.5544  -71.6234 H         1 UNK         0.1335 
     79 H79       -75.2598   28.3396  -70.4325 H         1 UNK         0.0680 
     80 H80       -76.2954   29.1737  -71.5697 H         1 UNK         0.0680 
     81 H81       -72.8866   28.8616  -73.1939 H         1 UNK         0.1032 
     82 H82       -74.0221   29.8181  -72.2900 H         1 UNK         0.1032 
     83 H83       -75.5002   29.9858  -74.3001 H         1 UNK         0.0461 
     84 H84       -72.0232   31.9399  -75.4216 H         1 UNK         0.3453 
     85 H85       -72.0482   30.1853  -75.4405 H         1 UNK         0.3453 
     86 H86       -73.7822   27.9926  -75.4242 H         1 UNK         0.2984 
     87 H87       -75.0545   27.0114  -77.4489 H         1 UNK         0.0554 
     88 H88       -76.3747   28.2836  -79.0900 H         1 UNK         0.0847 
     89 H89       -75.0709   27.4396  -79.9102 H         1 UNK         0.0847 
     90 H90       -74.9573   29.1747  -79.6161 H         1 UNK         0.0847 
     91 H91       -72.8730   26.8336  -77.5329 H         1 UNK         0.3141 
     92 H92       -70.6174   27.4460  -79.1588 H         1 UNK         0.0743 
     93 H93       -69.8451   29.7832  -79.2443 H         1 UNK         0.0784 
     94 H94       -69.9112   29.9197  -77.4942 H         1 UNK         0.0784 
     95 H95       -68.7392   28.8449  -78.2562 H         1 UNK         0.0784 
     96 H96       -70.2451   26.2489  -77.3313 H         1 UNK         0.3213 
     97 H97       -69.3693   26.1672  -74.8650 H         1 UNK         0.0855 
     98 H98       -70.3117   27.6876  -73.0754 H         1 UNK         0.0814 
     99 H99       -70.4168   25.9841  -72.6659 H         1 UNK         0.0814 
    100 H100      -71.8504   26.8398  -73.2096 H         1 UNK         0.0814 
    101 H101      -70.5424   24.2790  -75.1440 H         1 UNK         0.3105 
    102 H102      -73.2757   23.4572  -76.6881 H         1 UNK         0.0547 
    103 H103      -71.0278   22.5413  -76.2237 H         1 UNK         0.0837 
    104 H104      -71.3984   22.3840  -74.5067 H         1 UNK         0.0837 
    105 H105      -72.2516   21.4094  -75.6940 H         1 UNK         0.0837 
    106 H106      -74.9712   23.1069  -75.3142 H         1 UNK         0.3020 
    107 H107      -75.9369   22.0297  -73.3105 H         1 UNK         0.1245 
    108 H108      -75.0902   23.6093  -70.8355 H         1 UNK         0.0781 
    109 H109      -74.8853   21.9002  -71.0870 H         1 UNK         0.0781 
    110 H110      -76.5322   23.8333  -68.8329 H         1 UNK         0.0836 
    111 H111      -78.2324   23.4688  -68.7859 H         1 UNK         0.0836 
    112 H112      -76.5514   24.7973  -72.5833 H         1 UNK         0.3022 
    113 H113      -78.1486   25.8583  -73.6856 H         1 UNK         0.0747 
    114 H114      -77.6194   27.3511  -75.5843 H         1 UNK         0.0793 
    115 H115      -76.1441   26.5288  -75.1274 H         1 UNK         0.0793 
    116 H116      -77.0326   25.9958  -76.5430 H         1 UNK         0.0793 
    117 H117      -79.3871   25.5528  -76.1834 H         1 UNK         0.3047 
    118 H118      -81.1484   23.7200  -76.6376 H         1 UNK         0.0822 
    119 H119      -83.4087   23.2048  -75.6848 H         1 UNK         0.0807 
    120 H120      -82.8460   23.6544  -74.0755 H         1 UNK         0.0807 
    121 H121      -82.1615   22.2544  -74.8930 H         1 UNK         0.0807 
    122 H122      -81.9658   26.0932  -75.0506 H         1 UNK         0.2946 
    123 H123      -82.2835   28.0037  -77.9509 H         1 UNK         0.1144 
    124 H124      -84.3924   28.8552  -76.9304 H         1 UNK         0.0793 
    125 H125      -84.5418   27.3890  -75.9603 H         1 UNK         0.0793 
    126 H126      -84.6724   27.3083  -77.7117 H         1 UNK         0.0793 
    127 H127      -82.5133   28.5033  -75.1026 H         1 UNK         0.2896 
@<TRIPOS>BOND
     1    1    2 1    
     2    1   67 1    
     3    1   68 1    
     4    1   69 1    
     5    2    3 2    
     6    2    4 am   BACKBONE|DICT|INTERRES
     7    4    5 1    
     8    4   70 1    
     9    5    6 1    
    10    5   65 1    
    11    5   71 1    
    12    6    7 1    
    13    6   72 1    
    14    6   73 1    
    15    7    8 1    
    16    8    9 1    
    17    8   74 1    
    18    8   75 1    
    19    9   10 ar   
    20    9   14 ar   
    21   10   11 ar   
    22   10   76 1    
    23   11   12 ar   
    24   11   48 1    
    25   12   13 ar   
    26   12   77 1    
    27   13   14 ar   
    28   13   15 1    
    29   14   78 1    
    30   15   16 1    
    31   15   79 1    
    32   15   80 1    
    33   16   17 1    
    34   17   18 1    
    35   17   81 1    
    36   17   82 1    
    37   18   19 1    
    38   18   22 1    
    39   18   83 1    
    40   19   20 am   BACKBONE|DICT|INTERRES
    41   19   21 2    
    42   20   84 1    
    43   20   85 1    
    44   22   23 am   BACKBONE|DICT|INTERRES
    45   22   86 1    
    46   23   24 2    
    47   23   25 1    
    48   25   26 1    
    49   25   27 1    
    50   25   87 1    
    51   26   88 1    
    52   26   89 1    
    53   26   90 1    
    54   27   28 am   BACKBONE|DICT|INTERRES
    55   27   91 1    
    56   28   29 2    
    57   28   30 1    
    58   30   31 1    
    59   30   32 1    
    60   30   92 1    
    61   31   93 1    
    62   31   94 1    
    63   31   95 1    
    64   32   33 am   BACKBONE|DICT|INTERRES
    65   32   96 1    
    66   33   34 2    
    67   33   35 1    
    68   35   36 1    
    69   35   37 1    
    70   35   97 1    
    71   36   98 1    
    72   36   99 1    
    73   36  100 1    
    74   37   38 am   BACKBONE|DICT|INTERRES
    75   37  101 1    
    76   38   39 2    
    77   38   40 1    
    78   40   41 1    
    79   40   42 1    
    80   40  102 1    
    81   41  103 1    
    82   41  104 1    
    83   41  105 1    
    84   42   43 am   BACKBONE|DICT|INTERRES
    85   42  106 1    
    86   43   44 2    
    87   43   45 1    
    88   45   46 1    
    89   45   49 1    
    90   45  107 1    
    91   46   47 1    
    92   46  108 1    
    93   46  109 1    
    94   47   48 1    
    95   48  110 1    
    96   48  111 1    
    97   49   50 am   BACKBONE|DICT|INTERRES
    98   49  112 1    
    99   50   51 2    
   100   50   52 1    
   101   52   53 1    
   102   52   54 1    
   103   52  113 1    
   104   53  114 1    
   105   53  115 1    
   106   53  116 1    
   107   54   55 am   BACKBONE|DICT|INTERRES
   108   54  117 1    
   109   55   56 2    
   110   55   57 1    
   111   57   58 1    
   112   57   59 1    
   113   57  118 1    
   114   58  119 1    
   115   58  120 1    
   116   58  121 1    
   117   59   60 am   BACKBONE|DICT|INTERRES
   118   59  122 1    
   119   60   61 2    
   120   60   62 1    
   121   62   63 1    
   122   62   64 1    
   123   62  123 1    
   124   63  124 1    
   125   63  125 1    
   126   63  126 1    
   127   64   65 am   BACKBONE|DICT|INTERRES
   128   64  127 1    
   129   65   66 2    
@<TRIPOS>SUBSTRUCTURE
     1 UNK         1 GROUP             0       ****    0 ROOT    
