@<TRIPOS>MOLECULE
3R135
127   129    1
SMALL
USER_CHARGES


@<TRIPOS>ATOM
      1 CA        -84.1178   31.5618  -73.0590 C.3       0 UNK        -0.1998 
      2 C         -82.8543   31.0257  -73.7160 C.2       0 UNK         0.4909 
      3 O         -82.5436   31.4108  -74.8438 O.2       0 UNK        -0.5240 
      4 N         -82.1250   30.1526  -73.0115 N.am      1 UNK        -0.4739 
      5 CA        -80.9135   29.4763  -73.4817 C.3       1 UNK         0.0864 
      6 C6        -79.8348   29.3887  -72.3652 C.3       11 UNK        -0.0881 
      7 S7        -80.4102   28.6797  -70.7804 S.3       11 UNK        -0.2682 
      8 C8        -79.0793   29.2144  -69.6553 C.3       11 UNK         0.0289 
      9 C9        -77.7242   28.6714  -70.0861 C.ar      11 UNK        -0.0687 
     10 C10       -77.4732   27.2976  -70.0286 C.ar      11 UNK        -0.0823 
     11 C11       -76.2515   26.7836  -70.4676 C.ar      11 UNK        -0.0830 
     12 C12       -75.2677   27.6573  -70.9364 C.ar      11 UNK        -0.1021 
     13 C13       -75.5097   29.0296  -71.0253 C.ar      11 UNK        -0.0753 
     14 C14       -76.7365   29.5342  -70.5751 C.ar      11 UNK        -0.0933 
     15 C15       -74.4252   29.9204  -71.6303 C.3       11 UNK         0.0166 
     16 S16       -75.0310   31.3616  -72.5760 S.3       11 UNK        -0.2615 
     17 C17       -76.2071   30.6915  -73.8110 C.3       11 UNK        -0.0865 
     18 CA        -75.8926   29.3079  -74.4635 C.3       10 UNK         0.0862 
     19 C         -77.0176   28.8554  -75.4439 C.2       10 UNK         0.5551 
     20 N         -76.7214   28.0414  -76.4480 N.am      10 UNK        -0.7319 
     21 O         -78.1746   29.2350  -75.2907 O.2       10 UNK        -0.5018 
     22 N         -74.5382   29.1958  -75.0349 N.am      10 UNK        -0.4509 
     23 C         -74.0040   29.9809  -75.9812 C.2       10 UNK         0.4899 
     24 O         -74.5770   30.9605  -76.4592 O.2       10 UNK        -0.4839 
     25 CA        -72.6169   29.5970  -76.5385 C.3       9 UNK         0.0222 
     26 CB        -71.6579   30.8053  -76.5877 C.3       9 UNK        -0.1966 
     27 N         -71.9903   28.4341  -75.8935 N.am      9 UNK        -0.4218 
     28 C         -71.4920   28.3364  -74.6492 C.2       9 UNK         0.5020 
     29 O         -71.4482   29.2755  -73.8549 O.2       9 UNK        -0.5274 
     30 CA        -70.9865   26.9539  -74.1904 C.3       8 UNK         0.0270 
     31 CB        -71.6360   26.5488  -72.8537 C.3       8 UNK        -0.1976 
     32 N         -71.2712   25.9099  -75.1775 N.am      8 UNK        -0.4313 
     33 C         -70.3877   25.3860  -76.0377 C.2       8 UNK         0.5041 
     34 O         -69.1931   25.6840  -76.0571 O.2       8 UNK        -0.5577 
     35 CA        -70.9211   24.3648  -77.0638 C.3       7 UNK         0.0284 
     36 CB        -70.6168   22.9315  -76.5985 C.3       7 UNK        -0.1958 
     37 N         -72.3579   24.4845  -77.3371 N.am      7 UNK        -0.4454 
     38 C         -72.9455   25.5400  -77.9186 C.2       7 UNK         0.5089 
     39 O         -72.3316   26.5275  -78.3214 O.2       7 UNK        -0.5125 
     40 CA        -74.4844   25.5305  -77.9835 C.3       6 UNK         0.0408 
     41 CB        -74.9640   24.8545  -79.2762 C.3       6 UNK        -0.1791 
     42 N         -75.1337   24.8980  -76.8255 N.am      6 UNK        -0.4762 
     43 C         -74.9353   25.2353  -75.5402 C.2       6 UNK         0.5007 
     44 O         -74.1737   26.1456  -75.2072 O.2       6 UNK        -0.5032 
     45 CA        -75.6792   24.4431  -74.4432 C.3       5 UNK         0.0783 
     46 C46       -76.1794   25.3833  -73.3227 C.3       11 UNK        -0.0857 
     47 S47       -76.8734   24.4884  -71.8893 S.3       11 UNK        -0.2512 
     48 C48       -76.0114   25.2807  -70.4898 C.3       11 UNK         0.0225 
     49 N         -76.7645   23.6270  -74.9913 N.am      5 UNK        -0.4615 
     50 C         -76.6430   22.3524  -75.3854 C.2       4 UNK         0.5053 
     51 O         -75.5795   21.7332  -75.3575 O.2       4 UNK        -0.5105 
     52 CA        -77.9068   21.6430  -75.9094 C.3       4 UNK         0.0263 
     53 CB        -78.4798   20.7114  -74.8290 C.3       4 UNK        -0.1981 
     54 N         -78.9584   22.5627  -76.3500 N.am      4 UNK        -0.4224 
     55 C         -78.8735   23.3777  -77.4110 C.2       3 UNK         0.4895 
     56 O         -77.9198   23.3869  -78.1890 O.2       3 UNK        -0.5091 
     57 CA        -80.0272   24.3775  -77.6154 C.3       3 UNK         0.0250 
     58 CB        -81.0418   23.8258  -78.6298 C.3       3 UNK        -0.1996 
     59 N         -80.7281   24.7485  -76.3775 N.am      3 UNK        -0.4254 
     60 C         -80.1616   25.3827  -75.3407 C.2       2 UNK         0.5004 
     61 O         -78.9677   25.6830  -75.2954 O.2       2 UNK        -0.5226 
     62 CA        -81.0577   25.6619  -74.1248 C.3       2 UNK         0.0269 
     63 CB        -80.7903   24.6315  -73.0161 C.3       2 UNK        -0.1926 
     64 N         -80.8223   27.0049  -73.5942 N.am      2 UNK        -0.4687 
     65 C         -81.2934   28.1315  -74.1447 C.2       1 UNK         0.5165 
     66 O         -82.0253   28.1321  -75.1375 O.2       1 UNK        -0.5079 
     67 H67       -84.2636   31.1521  -72.0595 H         1 UNK         0.0900 
     68 H68       -84.9901   31.3070  -73.6603 H         1 UNK         0.0900 
     69 H69       -84.0661   32.6471  -72.9757 H         1 UNK         0.0900 
     70 H70       -82.4373   29.8678  -72.0934 H         1 UNK         0.2959 
     71 H71       -80.4729   30.0699  -74.2858 H         1 UNK         0.1079 
     72 H72       -79.4680   30.3960  -72.1619 H         1 UNK         0.0837 
     73 H73       -78.9624   28.8304  -72.7105 H         1 UNK         0.0837 
     74 H74       -79.0665   30.3044  -69.6067 H         1 UNK         0.0685 
     75 H75       -79.3040   28.8637  -68.6471 H         1 UNK         0.0685 
     76 H76       -78.2439   26.6252  -69.6767 H         1 UNK         0.1434 
     77 H77       -74.3204   27.2614  -71.2749 H         1 UNK         0.1329 
     78 H78       -76.9346   30.5955  -70.6288 H         1 UNK         0.1335 
     79 H79       -73.7784   29.3361  -72.2863 H         1 UNK         0.0680 
     80 H80       -73.7886   30.2831  -70.8228 H         1 UNK         0.0680 
     81 H81       -76.3285   31.4487  -74.5868 H         1 UNK         0.1032 
     82 H82       -77.1760   30.6427  -73.3127 H         1 UNK         0.1032 
     83 H83       -75.9267   28.5599  -73.6736 H         1 UNK         0.0461 
     84 H84       -77.4604   27.7298  -77.0567 H         1 UNK         0.3453 
     85 H85       -75.7815   27.7013  -76.5626 H         1 UNK         0.3453 
     86 H86       -74.0210   28.3713  -74.7611 H         1 UNK         0.2984 
     87 H87       -72.7945   29.2868  -77.5692 H         1 UNK         0.0554 
     88 H88       -70.6872   30.5272  -76.9978 H         1 UNK         0.0847 
     89 H89       -71.4959   31.2371  -75.5998 H         1 UNK         0.0847 
     90 H90       -72.0602   31.5972  -77.2207 H         1 UNK         0.0847 
     91 H91       -71.9718   27.6007  -76.4699 H         1 UNK         0.3141 
     92 H92       -69.9096   27.0420  -74.0331 H         1 UNK         0.0743 
     93 H93       -72.7204   26.4764  -72.9380 H         1 UNK         0.0784 
     94 H94       -71.2624   25.5845  -72.5091 H         1 UNK         0.0784 
     95 H95       -71.4169   27.2764  -72.0711 H         1 UNK         0.0784 
     96 H96       -72.2487   25.6484  -75.2585 H         1 UNK         0.3213 
     97 H97       -70.3889   24.5414  -78.0011 H         1 UNK         0.0855 
     98 H98       -71.1396   22.6870  -75.6728 H         1 UNK         0.0814 
     99 H99       -69.5496   22.7995  -76.4140 H         1 UNK         0.0814 
    100 H100      -70.9051   22.1986  -77.3523 H         1 UNK         0.0814 
    101 H101      -72.9473   23.7232  -77.0316 H         1 UNK         0.3105 
    102 H102      -74.8084   26.5720  -78.0107 H         1 UNK         0.0547 
    103 H103      -74.7379   23.7876  -79.2840 H         1 UNK         0.0837 
    104 H104      -76.0400   24.9697  -79.4069 H         1 UNK         0.0837 
    105 H105      -74.4861   25.2971  -80.1514 H         1 UNK         0.0837 
    106 H106      -75.8005   24.1642  -77.0264 H         1 UNK         0.3020 
    107 H107      -74.9292   23.7845  -73.9992 H         1 UNK         0.1245 
    108 H108      -75.3506   25.9970  -72.9763 H         1 UNK         0.0781 
    109 H109      -76.9329   26.0779  -73.6968 H         1 UNK         0.0781 
    110 H110      -76.3638   24.8387  -69.5568 H         1 UNK         0.0836 
    111 H111      -74.9448   25.0583  -70.5504 H         1 UNK         0.0836 
    112 H112      -77.6579   24.1001  -75.0794 H         1 UNK         0.3022 
    113 H113      -77.6088   21.0356  -76.7666 H         1 UNK         0.0747 
    114 H114      -79.3323   20.1443  -75.2035 H         1 UNK         0.0793 
    115 H115      -77.7318   19.9883  -74.5005 H         1 UNK         0.0793 
    116 H116      -78.8042   21.2668  -73.9478 H         1 UNK         0.0793 
    117 H117      -79.7834   22.6211  -75.7717 H         1 UNK         0.3047 
    118 H118      -79.5901   25.2887  -78.0297 H         1 UNK         0.0822 
    119 H119      -81.8118   24.5617  -78.8624 H         1 UNK         0.0807 
    120 H120      -81.5356   22.9262  -78.2602 H         1 UNK         0.0807 
    121 H121      -80.5519   23.5657  -79.5694 H         1 UNK         0.0807 
    122 H122      -81.7120   24.5231  -76.3341 H         1 UNK         0.2946 
    123 H123      -82.1053   25.5846  -74.4252 H         1 UNK         0.1144 
    124 H124      -81.4368   24.7990  -72.1545 H         1 UNK         0.0793 
    125 H125      -79.7569   24.6717  -72.6706 H         1 UNK         0.0793 
    126 H126      -80.9772   23.6163  -73.3685 H         1 UNK         0.0793 
    127 H127      -80.2236   27.0788  -72.7834 H         1 UNK         0.2896 
@<TRIPOS>BOND
     1    1    2 1    
     2    1   67 1    
     3    1   68 1    
     4    1   69 1    
     5    2    3 2    
     6    2    4 am   BACKBONE|DICT|INTERRES
     7    4    5 1    
     8    4   70 1    
     9    5    6 1    
    10    5   65 1    
    11    5   71 1    
    12    6    7 1    
    13    6   72 1    
    14    6   73 1    
    15    7    8 1    
    16    8    9 1    
    17    8   74 1    
    18    8   75 1    
    19    9   10 ar   
    20    9   14 ar   
    21   10   11 ar   
    22   10   76 1    
    23   11   12 ar   
    24   11   48 1    
    25   12   13 ar   
    26   12   77 1    
    27   13   14 ar   
    28   13   15 1    
    29   14   78 1    
    30   15   16 1    
    31   15   79 1    
    32   15   80 1    
    33   16   17 1    
    34   17   18 1    
    35   17   81 1    
    36   17   82 1    
    37   18   19 1    
    38   18   22 1    
    39   18   83 1    
    40   19   20 am   BACKBONE|DICT|INTERRES
    41   19   21 2    
    42   20   84 1    
    43   20   85 1    
    44   22   23 am   BACKBONE|DICT|INTERRES
    45   22   86 1    
    46   23   24 2    
    47   23   25 1    
    48   25   26 1    
    49   25   27 1    
    50   25   87 1    
    51   26   88 1    
    52   26   89 1    
    53   26   90 1    
    54   27   28 am   BACKBONE|DICT|INTERRES
    55   27   91 1    
    56   28   29 2    
    57   28   30 1    
    58   30   31 1    
    59   30   32 1    
    60   30   92 1    
    61   31   93 1    
    62   31   94 1    
    63   31   95 1    
    64   32   33 am   BACKBONE|DICT|INTERRES
    65   32   96 1    
    66   33   34 2    
    67   33   35 1    
    68   35   36 1    
    69   35   37 1    
    70   35   97 1    
    71   36   98 1    
    72   36   99 1    
    73   36  100 1    
    74   37   38 am   BACKBONE|DICT|INTERRES
    75   37  101 1    
    76   38   39 2    
    77   38   40 1    
    78   40   41 1    
    79   40   42 1    
    80   40  102 1    
    81   41  103 1    
    82   41  104 1    
    83   41  105 1    
    84   42   43 am   BACKBONE|DICT|INTERRES
    85   42  106 1    
    86   43   44 2    
    87   43   45 1    
    88   45   46 1    
    89   45   49 1    
    90   45  107 1    
    91   46   47 1    
    92   46  108 1    
    93   46  109 1    
    94   47   48 1    
    95   48  110 1    
    96   48  111 1    
    97   49   50 am   BACKBONE|DICT|INTERRES
    98   49  112 1    
    99   50   51 2    
   100   50   52 1    
   101   52   53 1    
   102   52   54 1    
   103   52  113 1    
   104   53  114 1    
   105   53  115 1    
   106   53  116 1    
   107   54   55 am   BACKBONE|DICT|INTERRES
   108   54  117 1    
   109   55   56 2    
   110   55   57 1    
   111   57   58 1    
   112   57   59 1    
   113   57  118 1    
   114   58  119 1    
   115   58  120 1    
   116   58  121 1    
   117   59   60 am   BACKBONE|DICT|INTERRES
   118   59  122 1    
   119   60   61 2    
   120   60   62 1    
   121   62   63 1    
   122   62   64 1    
   123   62  123 1    
   124   63  124 1    
   125   63  125 1    
   126   63  126 1    
   127   64   65 am   BACKBONE|DICT|INTERRES
   128   64  127 1    
   129   65   66 2    
@<TRIPOS>SUBSTRUCTURE
     1 UNK         1 GROUP             0       ****    0 ROOT    
