@<TRIPOS>MOLECULE
3R135
127   129    1
SMALL
USER_CHARGES


@<TRIPOS>ATOM
      1 CA        -81.8093   31.6368  -77.9980 C.3       0 UNK        -0.1998 
      2 C         -80.8592   30.6377  -77.3548 C.2       0 UNK         0.4909 
      3 O         -79.8557   30.2696  -77.9651 O.2       0 UNK        -0.5240 
      4 N         -81.1662   30.2038  -76.1247 N.am      1 UNK        -0.4739 
      5 CA        -80.3970   29.2126  -75.3634 C.3       1 UNK         0.0864 
      6 C6        -80.8389   29.2100  -73.8752 C.3       11 UNK        -0.0881 
      7 S7        -79.9094   28.0542  -72.8145 S.3       11 UNK        -0.2682 
      8 C8        -78.6908   29.1608  -72.0273 C.3       11 UNK         0.0289 
      9 C9        -77.5517   28.4523  -71.2876 C.ar      11 UNK        -0.0687 
     10 C10       -77.2882   27.0807  -71.4173 C.ar      11 UNK        -0.0823 
     11 C11       -76.2506   26.4759  -70.7023 C.ar      11 UNK        -0.0830 
     12 C12       -75.4381   27.2618  -69.8796 C.ar      11 UNK        -0.1021 
     13 C13       -75.6734   28.6343  -69.7517 C.ar      11 UNK        -0.0753 
     14 C14       -76.7380   29.2154  -70.4466 C.ar      11 UNK        -0.0933 
     15 C15       -74.8046   29.4795  -68.8302 C.3       11 UNK         0.0166 
     16 S16       -73.3595   30.1817  -69.6900 S.3       11 UNK        -0.2615 
     17 C17       -74.0992   31.5631  -70.6390 C.3       11 UNK        -0.0865 
     18 CA        -73.9233   31.4403  -72.1773 C.3       10 UNK         0.0862 
     19 C         -72.4855   31.8427  -72.6242 C.2       10 UNK         0.5551 
     20 N         -71.6729   30.9456  -73.1691 N.am      10 UNK        -0.7319 
     21 O         -72.1058   33.0026  -72.4814 O.2       10 UNK        -0.5018 
     22 N         -74.3910   30.1391  -72.6770 N.am      10 UNK        -0.4509 
     23 C         -74.6939   29.8663  -73.9505 C.2       10 UNK         0.4899 
     24 O         -74.7481   30.7091  -74.8479 O.2       10 UNK        -0.4839 
     25 CA        -74.9413   28.3849  -74.2808 C.3       9 UNK         0.0222 
     26 CB        -76.3145   28.1750  -74.9390 C.3       9 UNK        -0.1966 
     27 N         -73.8942   27.8471  -75.1557 N.am      9 UNK        -0.4218 
     28 C         -72.5896   27.7810  -74.8399 C.2       9 UNK         0.5020 
     29 O         -72.1409   28.1510  -73.7537 O.2       9 UNK        -0.5274 
     30 CA        -71.6082   27.1922  -75.8707 C.3       8 UNK         0.0270 
     31 CB        -70.7947   26.0386  -75.2559 C.3       8 UNK        -0.1976 
     32 N         -72.2715   26.7129  -77.0848 N.am      8 UNK        -0.4313 
     33 C         -72.4399   27.4395  -78.1989 C.2       8 UNK         0.5041 
     34 O         -72.0244   28.5917  -78.3285 O.2       8 UNK        -0.5577 
     35 CA        -73.1992   26.7892  -79.3730 C.3       7 UNK         0.0284 
     36 CB        -72.2121   26.3128  -80.4514 C.3       7 UNK        -0.1958 
     37 N         -74.0648   25.6697  -78.9895 N.am      7 UNK        -0.4454 
     38 C         -75.1385   25.7667  -78.1942 C.2       7 UNK         0.5089 
     39 O         -75.5183   26.8283  -77.7019 O.2       7 UNK        -0.5125 
     40 CA        -75.8875   24.4644  -77.8441 C.3       6 UNK         0.0408 
     41 CB        -75.4627   23.2423  -78.6885 C.3       6 UNK        -0.1791 
     42 N         -75.7949   24.1377  -76.4165 N.am      6 UNK        -0.4762 
     43 C         -74.6761   24.0451  -75.6768 C.2       6 UNK         0.5007 
     44 O         -73.5475   24.2563  -76.1234 O.2       6 UNK        -0.5032 
     45 CA        -74.8232   23.6422  -74.1922 C.3       5 UNK         0.0783 
     46 C46       -74.7447   24.8926  -73.2849 C.3       11 UNK        -0.0857 
     47 S47       -74.4799   24.4746  -71.5327 S.3       11 UNK        -0.2512 
     48 C48       -76.0566   24.9643  -70.7670 C.3       11 UNK         0.0225 
     49 N         -76.0328   22.8493  -73.9415 N.am      5 UNK        -0.4615 
     50 C         -76.2238   21.6005  -74.3882 C.2       4 UNK         0.5053 
     51 O         -75.3560   20.9476  -74.9687 O.2       4 UNK        -0.5105 
     52 CA        -77.6106   20.9630  -74.1699 C.3       4 UNK         0.0263 
     53 CB        -77.5566   19.9699  -72.9970 C.3       4 UNK        -0.1981 
     54 N         -78.7269   21.8947  -73.9520 N.am      4 UNK        -0.4224 
     55 C         -79.1136   22.8815  -74.7734 C.2       3 UNK         0.4895 
     56 O         -78.5004   23.2100  -75.7922 O.2       3 UNK        -0.5091 
     57 CA        -80.3882   23.6357  -74.3693 C.3       3 UNK         0.0250 
     58 CB        -80.2142   24.3564  -73.0203 C.3       3 UNK        -0.1996 
     59 N         -80.7144   24.6187  -75.3988 N.am      3 UNK        -0.4254 
     60 C         -81.9396   24.9856  -75.7838 C.2       2 UNK         0.5004 
     61 O         -82.9768   24.5448  -75.2840 O.2       2 UNK        -0.5226 
     62 CA        -82.0082   26.0551  -76.8925 C.3       2 UNK         0.0269 
     63 CB        -83.3843   26.1012  -77.5826 C.3       2 UNK        -0.1926 
     64 N         -81.7033   27.3845  -76.3586 N.am      2 UNK        -0.4687 
     65 C         -80.4802   27.8130  -76.0137 C.2       1 UNK         0.5165 
     66 O         -79.4527   27.1593  -76.2014 O.2       1 UNK        -0.5079 
     67 H67       -82.2097   31.2292  -78.9259 H         1 UNK         0.0900 
     68 H68       -81.2805   32.5605  -78.2316 H         1 UNK         0.0900 
     69 H69       -82.6476   31.8820  -77.3460 H         1 UNK         0.0900 
     70 H70       -82.0006   30.5544  -75.6757 H         1 UNK         0.2959 
     71 H71       -79.3476   29.5145  -75.3995 H         1 UNK         0.1079 
     72 H72       -80.7506   30.2153  -73.4598 H         1 UNK         0.0837 
     73 H73       -81.8962   28.9506  -73.7954 H         1 UNK         0.0837 
     74 H74       -78.2607   29.8199  -72.7820 H         1 UNK         0.0685 
     75 H75       -79.2260   29.8039  -71.3269 H         1 UNK         0.0685 
     76 H76       -77.9008   26.4660  -72.0571 H         1 UNK         0.1434 
     77 H77       -74.6324   26.7996  -69.3252 H         1 UNK         0.1329 
     78 H78       -76.9414   30.2706  -70.3319 H         1 UNK         0.1335 
     79 H79       -75.3912   30.2808  -68.3782 H         1 UNK         0.0680 
     80 H80       -74.4484   28.8663  -68.0010 H         1 UNK         0.0680 
     81 H81       -73.6695   32.4982  -70.2741 H         1 UNK         0.1032 
     82 H82       -75.1594   31.6428  -70.4049 H         1 UNK         0.1032 
     83 H83       -74.5762   32.1934  -72.6230 H         1 UNK         0.0461 
     84 H84       -70.7487   31.2277  -73.4525 H         1 UNK         0.3453 
     85 H85       -71.9617   29.9774  -73.2807 H         1 UNK         0.3453 
     86 H86       -74.3416   29.3815  -72.0096 H         1 UNK         0.2984 
     87 H87       -74.9244   27.8158  -73.3495 H         1 UNK         0.0554 
     88 H88       -76.5116   27.1206  -75.1328 H         1 UNK         0.0847 
     89 H89       -77.1169   28.5346  -74.2996 H         1 UNK         0.0847 
     90 H90       -76.3950   28.7071  -75.8877 H         1 UNK         0.0847 
     91 H91       -74.1893   27.5530  -76.0792 H         1 UNK         0.3141 
     92 H92       -70.9063   27.9880  -76.1284 H         1 UNK         0.0743 
     93 H93       -70.1998   26.3872  -74.4107 H         1 UNK         0.0784 
     94 H94       -71.4369   25.2378  -74.8890 H         1 UNK         0.0784 
     95 H95       -70.1026   25.6096  -75.9806 H         1 UNK         0.0784 
     96 H96       -72.6762   25.7811  -77.0313 H         1 UNK         0.3213 
     97 H97       -73.8352   27.5625  -79.8097 H         1 UNK         0.0855 
     98 H98       -71.5728   27.1318  -80.7843 H         1 UNK         0.0814 
     99 H99       -72.7342   25.9356  -81.3309 H         1 UNK         0.0814 
    100 H100      -71.5596   25.5214  -80.0802 H         1 UNK         0.0814 
    101 H101      -73.8017   24.7550  -79.3264 H         1 UNK         0.3105 
    102 H102      -76.9421   24.6563  -78.0471 H         1 UNK         0.0547 
    103 H103      -75.5705   23.4394  -79.7560 H         1 UNK         0.0837 
    104 H104      -74.4294   22.9475  -78.5015 H         1 UNK         0.0837 
    105 H105      -76.0910   22.3807  -78.4619 H         1 UNK         0.0837 
    106 H106      -76.6848   23.9210  -75.9758 H         1 UNK         0.3020 
    107 H107      -73.9614   23.0088  -73.9679 H         1 UNK         0.1245 
    108 H108      -73.8985   25.5170  -73.5720 H         1 UNK         0.0781 
    109 H109      -75.6366   25.5101  -73.3981 H         1 UNK         0.0781 
    110 H110      -76.0843   24.5671  -69.7514 H         1 UNK         0.0836 
    111 H111      -76.8793   24.4834  -71.2981 H         1 UNK         0.0836 
    112 H112      -76.7901   23.3101  -73.4623 H         1 UNK         0.3022 
    113 H113      -77.8406   20.4024  -75.0783 H         1 UNK         0.0747 
    114 H114      -78.4888   19.4125  -72.9029 H         1 UNK         0.0793 
    115 H115      -76.7597   19.2382  -73.1387 H         1 UNK         0.0793 
    116 H116      -77.3685   20.4761  -72.0492 H         1 UNK         0.0793 
    117 H117      -79.2911   21.7143  -73.1339 H         1 UNK         0.3047 
    118 H118      -81.1957   22.9043  -74.2928 H         1 UNK         0.0822 
    119 H119      -81.1046   24.9292  -72.7595 H         1 UNK         0.0807 
    120 H120      -79.3738   25.0482  -73.0508 H         1 UNK         0.0807 
    121 H121      -80.0358   23.6545  -72.2054 H         1 UNK         0.0807 
    122 H122      -79.9131   25.0390  -75.8585 H         1 UNK         0.2946 
    123 H123      -81.2637   25.7977  -77.6500 H         1 UNK         0.1144 
    124 H124      -83.3890   26.8112  -78.4099 H         1 UNK         0.0793 
    125 H125      -84.1774   26.3875  -76.8906 H         1 UNK         0.0793 
    126 H126      -83.6466   25.1252  -77.9934 H         1 UNK         0.0793 
    127 H127      -82.4919   27.9847  -76.1666 H         1 UNK         0.2896 
@<TRIPOS>BOND
     1    1    2 1    
     2    1   67 1    
     3    1   68 1    
     4    1   69 1    
     5    2    3 2    
     6    2    4 am   BACKBONE|DICT|INTERRES
     7    4    5 1    
     8    4   70 1    
     9    5    6 1    
    10    5   65 1    
    11    5   71 1    
    12    6    7 1    
    13    6   72 1    
    14    6   73 1    
    15    7    8 1    
    16    8    9 1    
    17    8   74 1    
    18    8   75 1    
    19    9   10 ar   
    20    9   14 ar   
    21   10   11 ar   
    22   10   76 1    
    23   11   12 ar   
    24   11   48 1    
    25   12   13 ar   
    26   12   77 1    
    27   13   14 ar   
    28   13   15 1    
    29   14   78 1    
    30   15   16 1    
    31   15   79 1    
    32   15   80 1    
    33   16   17 1    
    34   17   18 1    
    35   17   81 1    
    36   17   82 1    
    37   18   19 1    
    38   18   22 1    
    39   18   83 1    
    40   19   20 am   BACKBONE|DICT|INTERRES
    41   19   21 2    
    42   20   84 1    
    43   20   85 1    
    44   22   23 am   BACKBONE|DICT|INTERRES
    45   22   86 1    
    46   23   24 2    
    47   23   25 1    
    48   25   26 1    
    49   25   27 1    
    50   25   87 1    
    51   26   88 1    
    52   26   89 1    
    53   26   90 1    
    54   27   28 am   BACKBONE|DICT|INTERRES
    55   27   91 1    
    56   28   29 2    
    57   28   30 1    
    58   30   31 1    
    59   30   32 1    
    60   30   92 1    
    61   31   93 1    
    62   31   94 1    
    63   31   95 1    
    64   32   33 am   BACKBONE|DICT|INTERRES
    65   32   96 1    
    66   33   34 2    
    67   33   35 1    
    68   35   36 1    
    69   35   37 1    
    70   35   97 1    
    71   36   98 1    
    72   36   99 1    
    73   36  100 1    
    74   37   38 am   BACKBONE|DICT|INTERRES
    75   37  101 1    
    76   38   39 2    
    77   38   40 1    
    78   40   41 1    
    79   40   42 1    
    80   40  102 1    
    81   41  103 1    
    82   41  104 1    
    83   41  105 1    
    84   42   43 am   BACKBONE|DICT|INTERRES
    85   42  106 1    
    86   43   44 2    
    87   43   45 1    
    88   45   46 1    
    89   45   49 1    
    90   45  107 1    
    91   46   47 1    
    92   46  108 1    
    93   46  109 1    
    94   47   48 1    
    95   48  110 1    
    96   48  111 1    
    97   49   50 am   BACKBONE|DICT|INTERRES
    98   49  112 1    
    99   50   51 2    
   100   50   52 1    
   101   52   53 1    
   102   52   54 1    
   103   52  113 1    
   104   53  114 1    
   105   53  115 1    
   106   53  116 1    
   107   54   55 am   BACKBONE|DICT|INTERRES
   108   54  117 1    
   109   55   56 2    
   110   55   57 1    
   111   57   58 1    
   112   57   59 1    
   113   57  118 1    
   114   58  119 1    
   115   58  120 1    
   116   58  121 1    
   117   59   60 am   BACKBONE|DICT|INTERRES
   118   59  122 1    
   119   60   61 2    
   120   60   62 1    
   121   62   63 1    
   122   62   64 1    
   123   62  123 1    
   124   63  124 1    
   125   63  125 1    
   126   63  126 1    
   127   64   65 am   BACKBONE|DICT|INTERRES
   128   64  127 1    
   129   65   66 2    
@<TRIPOS>SUBSTRUCTURE
     1 UNK         1 GROUP             0       ****    0 ROOT    
