@<TRIPOS>MOLECULE
3R135
127   129    1
SMALL
USER_CHARGES


@<TRIPOS>ATOM
      1 CA        -82.0005   30.6085  -75.9029 C.3       0 UNK        -0.1998 
      2 C         -81.3890   29.5685  -74.9767 C.2       0 UNK         0.4909 
      3 O         -80.3514   28.9931  -75.3046 O.2       0 UNK        -0.5240 
      4 N         -82.0200   29.3293  -73.8204 N.am      1 UNK        -0.4739 
      5 CA        -81.5876   28.3471  -72.8225 C.3       1 UNK         0.0864 
      6 C6        -82.1677   28.6380  -71.4123 C.3       11 UNK        -0.0881 
      7 S7        -81.7917   30.3313  -70.8308 S.3       11 UNK        -0.2682 
      8 C8        -80.3211   30.0819  -69.7793 C.3       11 UNK         0.0289 
      9 C9        -79.1768   29.4116  -70.5284 C.ar      11 UNK        -0.0687 
     10 C10       -78.6888   28.1736  -70.1012 C.ar      11 UNK        -0.0823 
     11 C11       -77.6722   27.5171  -70.8022 C.ar      11 UNK        -0.0830 
     12 C12       -77.1570   28.1164  -71.9614 C.ar      11 UNK        -0.1021 
     13 C13       -77.6355   29.3567  -72.3986 C.ar      11 UNK        -0.0753 
     14 C14       -78.6262   30.0116  -71.6643 C.ar      11 UNK        -0.0933 
     15 C15       -77.1319   29.9542  -73.7023 C.3       11 UNK         0.0166 
     16 S16       -75.5601   30.8488  -73.4973 S.3       11 UNK        -0.2615 
     17 C17       -74.9854   30.9481  -75.2340 C.3       11 UNK        -0.0865 
     18 CA        -73.4577   30.7232  -75.4879 C.3       10 UNK         0.0862 
     19 C         -72.5838   32.0160  -75.4278 C.2       10 UNK         0.5551 
     20 N         -71.2639   31.9008  -75.3428 N.am      10 UNK        -0.7319 
     21 O         -73.0919   33.1324  -75.5032 O.2       10 UNK        -0.5018 
     22 N         -72.9100   29.5156  -74.8319 N.am      10 UNK        -0.4509 
     23 C         -72.4238   29.4242  -73.5825 C.2       10 UNK         0.4899 
     24 O         -72.2948   30.3793  -72.8160 O.2       10 UNK        -0.4839 
     25 CA        -72.0264   28.0338  -73.0629 C.3       9 UNK         0.0222 
     26 CB        -73.0704   27.5420  -72.0477 C.3       9 UNK        -0.1966 
     27 N         -71.8686   27.0157  -74.1030 N.am      9 UNK        -0.4218 
     28 C         -70.7516   26.8210  -74.8160 C.2       9 UNK         0.5020 
     29 O         -69.7775   27.5736  -74.7760 O.2       9 UNK        -0.5274 
     30 CA        -70.6926   25.5639  -75.6973 C.3       8 UNK         0.0270 
     31 CB        -70.4468   24.3137  -74.8351 C.3       8 UNK        -0.1976 
     32 N         -71.9220   25.3812  -76.4701 N.am      8 UNK        -0.4313 
     33 C         -71.9907   25.3735  -77.8089 C.2       8 UNK         0.5041 
     34 O         -71.0083   25.4723  -78.5463 O.2       8 UNK        -0.5577 
     35 CA        -73.3854   25.2343  -78.4544 C.3       7 UNK         0.0284 
     36 CB        -73.6369   23.7745  -78.8665 C.3       7 UNK        -0.1958 
     37 N         -74.4972   25.6869  -77.6142 N.am      7 UNK        -0.4454 
     38 C         -74.6294   26.9140  -77.0928 C.2       7 UNK         0.5089 
     39 O         -73.8541   27.8451  -77.3082 O.2       7 UNK        -0.5125 
     40 CA        -75.7846   27.1259  -76.1052 C.3       6 UNK         0.0408 
     41 CB        -77.0326   27.6259  -76.8491 C.3       6 UNK        -0.1791 
     42 N         -76.1339   25.9500  -75.3036 N.am      6 UNK        -0.4762 
     43 C         -75.3027   25.2450  -74.5210 C.2       6 UNK         0.5007 
     44 O         -74.0884   25.4401  -74.4568 O.2       6 UNK        -0.5032 
     45 CA        -75.9326   24.0976  -73.7136 C.3       5 UNK         0.0783 
     46 C46       -76.8343   24.6100  -72.5634 C.3       11 UNK        -0.0857 
     47 S47       -75.8722   25.3216  -71.1906 S.3       11 UNK        -0.2512 
     48 C48       -77.1838   26.1736  -70.2486 C.3       11 UNK         0.0225 
     49 N         -76.6641   23.2155  -74.6197 N.am      5 UNK        -0.4615 
     50 C         -76.0919   22.2885  -75.3993 C.2       4 UNK         0.5053 
     51 O         -74.8978   21.9943  -75.3506 O.2       4 UNK        -0.5105 
     52 CA        -76.9999   21.5747  -76.4166 C.3       4 UNK         0.0263 
     53 CB        -77.5218   20.2514  -75.8345 C.3       4 UNK        -0.1981 
     54 N         -78.1350   22.3918  -76.8552 N.am      4 UNK        -0.4224 
     55 C         -78.0309   23.5137  -77.5819 C.2       3 UNK         0.4895 
     56 O         -76.9640   23.9750  -77.9887 O.2       3 UNK        -0.5091 
     57 CA        -79.3401   24.2739  -77.8556 C.3       3 UNK         0.0250 
     58 CB        -80.0649   23.6798  -79.0740 C.3       3 UNK        -0.1996 
     59 N         -80.2575   24.3203  -76.7079 N.am      3 UNK        -0.4254 
     60 C         -79.9580   24.8604  -75.5185 C.2       2 UNK         0.5004 
     61 O         -78.8421   25.2929  -75.2230 O.2       2 UNK        -0.5226 
     62 CA        -81.0641   24.9103  -74.4632 C.3       2 UNK         0.0269 
     63 CB        -80.9157   23.7577  -73.4556 C.3       2 UNK        -0.1926 
     64 N         -80.9337   26.1903  -73.7760 N.am      2 UNK        -0.4687 
     65 C         -81.9444   26.9324  -73.3153 C.2       1 UNK         0.5165 
     66 O         -83.1204   26.5615  -73.3080 O.2       1 UNK        -0.5079 
     67 H67       -81.2884   31.4134  -76.0833 H         1 UNK         0.0900 
     68 H68       -82.9072   31.0449  -75.4843 H         1 UNK         0.0900 
     69 H69       -82.2524   30.1548  -76.8610 H         1 UNK         0.0900 
     70 H70       -82.8726   29.8243  -73.6015 H         1 UNK         0.2959 
     71 H71       -80.5012   28.4012  -72.7491 H         1 UNK         0.1079 
     72 H72       -81.7893   27.9160  -70.6863 H         1 UNK         0.0837 
     73 H73       -83.2533   28.5229  -71.4139 H         1 UNK         0.0837 
     74 H74       -79.9838   31.0503  -69.4079 H         1 UNK         0.0685 
     75 H75       -80.6101   29.4996  -68.9030 H         1 UNK         0.0685 
     76 H76       -79.1073   27.7127  -69.2165 H         1 UNK         0.1434 
     77 H77       -76.3897   27.6263  -72.5416 H         1 UNK         0.1329 
     78 H78       -79.0090   30.9640  -72.0051 H         1 UNK         0.1335 
     79 H79       -77.0170   29.1487  -74.4224 H         1 UNK         0.0680 
     80 H80       -77.8758   30.6304  -74.1269 H         1 UNK         0.0680 
     81 H81       -75.5290   30.2062  -75.8174 H         1 UNK         0.1032 
     82 H82       -75.3180   31.9018  -75.6472 H         1 UNK         0.1032 
     83 H83       -73.3931   30.4737  -76.5476 H         1 UNK         0.0461 
     84 H84       -70.8370   30.9905  -75.2756 H         1 UNK         0.3453 
     85 H85       -70.6945   32.7317  -75.3160 H         1 UNK         0.3453 
     86 H86       -72.9404   28.6769  -75.3961 H         1 UNK         0.2984 
     87 H87       -71.0756   28.1424  -72.5365 H         1 UNK         0.0554 
     88 H88       -72.7983   26.5734  -71.6282 H         1 UNK         0.0847 
     89 H89       -74.0540   27.4448  -72.5062 H         1 UNK         0.0847 
     90 H90       -73.1704   28.2397  -71.2151 H         1 UNK         0.0847 
     91 H91       -72.6444   26.3610  -74.2019 H         1 UNK         0.3141 
     92 H92       -69.8358   25.6822  -76.3640 H         1 UNK         0.0743 
     93 H93       -71.2759   24.1211  -74.1526 H         1 UNK         0.0784 
     94 H94       -70.3142   23.4276  -75.4561 H         1 UNK         0.0784 
     95 H95       -69.5443   24.4249  -74.2323 H         1 UNK         0.0784 
     96 H96       -72.7860   25.3056  -75.9419 H         1 UNK         0.3213 
     97 H97       -73.3865   25.8523  -79.3545 H         1 UNK         0.0855 
     98 H98       -73.6998   23.1169  -77.9982 H         1 UNK         0.0814 
     99 H99       -72.8330   23.4017  -79.5028 H         1 UNK         0.0814 
    100 H100      -74.5655   23.6753  -79.4291 H         1 UNK         0.0814 
    101 H101      -75.2333   25.0124  -77.4298 H         1 UNK         0.3105 
    102 H102      -75.4573   27.8898  -75.4004 H         1 UNK         0.0547 
    103 H103      -77.3658   26.9044  -77.5950 H         1 UNK         0.0837 
    104 H104      -77.8660   27.8051  -76.1694 H         1 UNK         0.0837 
    105 H105      -76.8299   28.5621  -77.3705 H         1 UNK         0.0837 
    106 H106      -77.1215   25.6931  -75.3034 H         1 UNK         0.3020 
    107 H107      -75.1149   23.5238  -73.2700 H         1 UNK         0.1245 
    108 H108      -77.5639   25.3397  -72.9180 H         1 UNK         0.0781 
    109 H109      -77.4140   23.7819  -72.1527 H         1 UNK         0.0781 
    110 H110      -78.0338   25.4974  -70.1444 H         1 UNK         0.0836 
    111 H111      -76.8041   26.3423  -69.2399 H         1 UNK         0.0836 
    112 H112      -77.6373   23.4421  -74.7710 H         1 UNK         0.3022 
    113 H113      -76.3911   21.3480  -77.2947 H         1 UNK         0.0747 
    114 H114      -78.1008   19.6941  -76.5713 H         1 UNK         0.0793 
    115 H115      -76.6959   19.6102  -75.5227 H         1 UNK         0.0793 
    116 H116      -78.1549   20.4147  -74.9614 H         1 UNK         0.0793 
    117 H117      -79.0547   22.0920  -76.5661 H         1 UNK         0.3047 
    118 H118      -79.0709   25.3041  -78.0953 H         1 UNK         0.0822 
    119 H119      -80.9337   24.2779  -79.3497 H         1 UNK         0.0807 
    120 H120      -80.4038   22.6599  -78.8881 H         1 UNK         0.0807 
    121 H121      -79.4063   23.6509  -79.9435 H         1 UNK         0.0807 
    122 H122      -81.1926   23.9718  -76.8652 H         1 UNK         0.2946 
    123 H123      -82.0359   24.8483  -74.9588 H         1 UNK         0.1144 
    124 H124      -81.6981   23.7939  -72.6973 H         1 UNK         0.0793 
    125 H125      -79.9535   23.7907  -72.9431 H         1 UNK         0.0793 
    126 H126      -80.9907   22.7898  -73.9527 H         1 UNK         0.0793 
    127 H127      -80.0057   26.5932  -73.8337 H         1 UNK         0.2896 
@<TRIPOS>BOND
     1    1    2 1    
     2    1   67 1    
     3    1   68 1    
     4    1   69 1    
     5    2    3 2    
     6    2    4 am   BACKBONE|DICT|INTERRES
     7    4    5 1    
     8    4   70 1    
     9    5    6 1    
    10    5   65 1    
    11    5   71 1    
    12    6    7 1    
    13    6   72 1    
    14    6   73 1    
    15    7    8 1    
    16    8    9 1    
    17    8   74 1    
    18    8   75 1    
    19    9   10 ar   
    20    9   14 ar   
    21   10   11 ar   
    22   10   76 1    
    23   11   12 ar   
    24   11   48 1    
    25   12   13 ar   
    26   12   77 1    
    27   13   14 ar   
    28   13   15 1    
    29   14   78 1    
    30   15   16 1    
    31   15   79 1    
    32   15   80 1    
    33   16   17 1    
    34   17   18 1    
    35   17   81 1    
    36   17   82 1    
    37   18   19 1    
    38   18   22 1    
    39   18   83 1    
    40   19   20 am   BACKBONE|DICT|INTERRES
    41   19   21 2    
    42   20   84 1    
    43   20   85 1    
    44   22   23 am   BACKBONE|DICT|INTERRES
    45   22   86 1    
    46   23   24 2    
    47   23   25 1    
    48   25   26 1    
    49   25   27 1    
    50   25   87 1    
    51   26   88 1    
    52   26   89 1    
    53   26   90 1    
    54   27   28 am   BACKBONE|DICT|INTERRES
    55   27   91 1    
    56   28   29 2    
    57   28   30 1    
    58   30   31 1    
    59   30   32 1    
    60   30   92 1    
    61   31   93 1    
    62   31   94 1    
    63   31   95 1    
    64   32   33 am   BACKBONE|DICT|INTERRES
    65   32   96 1    
    66   33   34 2    
    67   33   35 1    
    68   35   36 1    
    69   35   37 1    
    70   35   97 1    
    71   36   98 1    
    72   36   99 1    
    73   36  100 1    
    74   37   38 am   BACKBONE|DICT|INTERRES
    75   37  101 1    
    76   38   39 2    
    77   38   40 1    
    78   40   41 1    
    79   40   42 1    
    80   40  102 1    
    81   41  103 1    
    82   41  104 1    
    83   41  105 1    
    84   42   43 am   BACKBONE|DICT|INTERRES
    85   42  106 1    
    86   43   44 2    
    87   43   45 1    
    88   45   46 1    
    89   45   49 1    
    90   45  107 1    
    91   46   47 1    
    92   46  108 1    
    93   46  109 1    
    94   47   48 1    
    95   48  110 1    
    96   48  111 1    
    97   49   50 am   BACKBONE|DICT|INTERRES
    98   49  112 1    
    99   50   51 2    
   100   50   52 1    
   101   52   53 1    
   102   52   54 1    
   103   52  113 1    
   104   53  114 1    
   105   53  115 1    
   106   53  116 1    
   107   54   55 am   BACKBONE|DICT|INTERRES
   108   54  117 1    
   109   55   56 2    
   110   55   57 1    
   111   57   58 1    
   112   57   59 1    
   113   57  118 1    
   114   58  119 1    
   115   58  120 1    
   116   58  121 1    
   117   59   60 am   BACKBONE|DICT|INTERRES
   118   59  122 1    
   119   60   61 2    
   120   60   62 1    
   121   62   63 1    
   122   62   64 1    
   123   62  123 1    
   124   63  124 1    
   125   63  125 1    
   126   63  126 1    
   127   64   65 am   BACKBONE|DICT|INTERRES
   128   64  127 1    
   129   65   66 2    
@<TRIPOS>SUBSTRUCTURE
     1 UNK         1 GROUP             0       ****    0 ROOT    
