@<TRIPOS>MOLECULE
3R135
127   129    1
SMALL
USER_CHARGES


@<TRIPOS>ATOM
      1 CA        -80.8368   23.6788  -69.8156 C.3       0 UNK        -0.1998 
      2 C         -79.8258   24.7594  -70.1856 C.2       0 UNK         0.4909 
      3 O         -78.7831   24.8585  -69.5424 O.2       0 UNK        -0.5240 
      4 N         -80.0762   25.5835  -71.2082 N.am      1 UNK        -0.4739 
      5 CA        -81.2428   25.6078  -72.0874 C.3       1 UNK         0.0864 
      6 C6        -82.4226   26.4176  -71.4733 C.3       11 UNK        -0.0881 
      7 S7        -82.3768   28.2398  -71.6236 S.3       11 UNK        -0.2682 
      8 C8        -81.0528   28.7306  -70.4653 C.3       11 UNK         0.0289 
      9 C9        -79.7289   28.9892  -71.1784 C.ar      11 UNK        -0.0687 
     10 C10       -79.6804   29.8629  -72.2679 C.ar      11 UNK        -0.0823 
     11 C11       -78.4824   30.1005  -72.9436 C.ar      11 UNK        -0.0830 
     12 C12       -77.3158   29.4655  -72.5049 C.ar      11 UNK        -0.1021 
     13 C13       -77.3347   28.5982  -71.4035 C.ar      11 UNK        -0.0753 
     14 C14       -78.5490   28.3769  -70.7432 C.ar      11 UNK        -0.0933 
     15 C15       -76.0875   27.8783  -70.8782 C.3       11 UNK         0.0166 
     16 S16       -74.6064   27.9197  -71.9500 S.3       11 UNK        -0.2615 
     17 C17       -73.9487   29.5934  -71.6016 C.3       11 UNK        -0.0865 
     18 CA        -72.6503   29.9396  -72.3848 C.3       10 UNK         0.0862 
     19 C         -71.3680   29.3819  -71.6943 C.2       10 UNK         0.5551 
     20 N         -70.4741   28.6819  -72.3824 N.am      10 UNK        -0.7319 
     21 O         -71.1669   29.6099  -70.5037 O.2       10 UNK        -0.5018 
     22 N         -72.7784   29.6113  -73.8130 N.am      10 UNK        -0.4509 
     23 C         -72.1466   30.2255  -74.8207 C.2       10 UNK         0.4899 
     24 O         -71.4614   31.2404  -74.6832 O.2       10 UNK        -0.4839 
     25 CA        -72.2955   29.5673  -76.2105 C.3       9 UNK         0.0222 
     26 CB        -71.2660   30.0886  -77.2363 C.3       9 UNK        -0.1966 
     27 N         -72.2760   28.0939  -76.1555 N.am      9 UNK        -0.4218 
     28 C         -71.2927   27.3381  -75.6375 C.2       9 UNK         0.5020 
     29 O         -70.2464   27.8056  -75.1855 O.2       9 UNK        -0.5274 
     30 CA        -71.4975   25.8204  -75.5394 C.3       8 UNK         0.0270 
     31 CB        -71.7743   25.4300  -74.0756 C.3       8 UNK        -0.1976 
     32 N         -72.5833   25.3039  -76.3765 N.am      8 UNK        -0.4313 
     33 C         -72.3894   24.6393  -77.5232 C.2       8 UNK         0.5041 
     34 O         -71.3012   24.5632  -78.0964 O.2       8 UNK        -0.5577 
     35 CA        -73.5922   23.8773  -78.1029 C.3       7 UNK         0.0284 
     36 CB        -73.9226   22.6499  -77.2363 C.3       7 UNK        -0.1958 
     37 N         -74.7870   24.7052  -78.2572 N.am      7 UNK        -0.4454 
     38 C         -74.9524   25.6143  -79.2272 C.2       7 UNK         0.5089 
     39 O         -74.1081   25.8620  -80.0893 O.2       7 UNK        -0.5125 
     40 CA        -76.2899   26.3765  -79.2460 C.3       6 UNK         0.0408 
     41 CB        -77.3775   25.5469  -79.9464 C.3       6 UNK        -0.1791 
     42 N         -76.7574   26.7666  -77.9147 N.am      6 UNK        -0.4762 
     43 C         -76.0986   27.5923  -77.0888 C.2       6 UNK         0.5007 
     44 O         -75.0206   28.1190  -77.3608 O.2       6 UNK        -0.5032 
     45 CA        -76.7277   27.8205  -75.7016 C.3       5 UNK         0.0783 
     46 C46       -77.9466   28.7773  -75.7891 C.3       11 UNK        -0.0857 
     47 S47       -77.4302   30.5100  -75.5416 S.3       11 UNK        -0.2512 
     48 C48       -78.4805   31.0448  -74.1453 C.3       11 UNK         0.0225 
     49 N         -77.0490   26.5567  -75.0355 N.am      5 UNK        -0.4615 
     50 C         -76.1641   25.5846  -74.7711 C.2       4 UNK         0.5053 
     51 O         -74.9602   25.6659  -75.0071 O.2       4 UNK        -0.5105 
     52 CA        -76.7245   24.2693  -74.2154 C.3       4 UNK         0.0263 
     53 CB        -76.9284   24.3639  -72.6960 C.3       4 UNK        -0.1981 
     54 N         -77.9738   23.8932  -74.8820 N.am      4 UNK        -0.4224 
     55 C         -78.0562   23.5372  -76.1739 C.2       3 UNK         0.4895 
     56 O         -77.0818   23.4225  -76.9168 O.2       3 UNK        -0.5091 
     57 CA        -79.4651   23.3151  -76.7473 C.3       3 UNK         0.0250 
     58 CB        -79.9677   21.8994  -76.4230 C.3       3 UNK        -0.1996 
     59 N         -80.4313   24.3053  -76.2663 N.am      3 UNK        -0.4254 
     60 C         -80.3839   25.6147  -76.5533 C.2       2 UNK         0.5004 
     61 O         -79.5489   26.1246  -77.3009 O.2       2 UNK        -0.5226 
     62 CA        -81.4134   26.5113  -75.8424 C.3       2 UNK         0.0269 
     63 CB        -82.7233   26.5732  -76.6433 C.3       2 UNK        -0.1926 
     64 N         -81.6978   26.0961  -74.4613 N.am      2 UNK        -0.4687 
     65 C         -80.7807   26.0752  -73.4835 C.2       1 UNK         0.5165 
     66 O         -79.5978   26.3748  -73.6689 O.2       1 UNK        -0.5079 
     67 H67       -80.5548   23.1999  -68.8782 H         1 UNK         0.0900 
     68 H68       -80.8710   22.9080  -70.5848 H         1 UNK         0.0900 
     69 H69       -81.8361   24.0900  -69.6850 H         1 UNK         0.0900 
     70 H70       -79.3713   26.2541  -71.4903 H         1 UNK         0.2959 
     71 H71       -81.5776   24.5790  -72.2316 H         1 UNK         0.1079 
     72 H72       -83.3506   26.0955  -71.9482 H         1 UNK         0.0837 
     73 H73       -82.5522   26.1706  -70.4194 H         1 UNK         0.0837 
     74 H74       -81.3561   29.6484  -69.9601 H         1 UNK         0.0685 
     75 H75       -80.9427   27.9737  -69.6872 H         1 UNK         0.0685 
     76 H76       -80.5884   30.3487  -72.5984 H         1 UNK         0.1434 
     77 H77       -76.4011   29.6475  -73.0452 H         1 UNK         0.1329 
     78 H78       -78.5750   27.7151  -69.8876 H         1 UNK         0.1335 
     79 H79       -76.3400   26.8288  -70.7168 H         1 UNK         0.0680 
     80 H80       -75.8292   28.2832  -69.8987 H         1 UNK         0.0680 
     81 H81       -74.7088   30.3338  -71.8484 H         1 UNK         0.1032 
     82 H82       -73.8007   29.6990  -70.5249 H         1 UNK         0.1032 
     83 H83       -72.5379   31.0235  -72.3176 H         1 UNK         0.0461 
     84 H84       -69.6523   28.3443  -71.9075 H         1 UNK         0.3453 
     85 H85       -70.5811   28.5102  -73.3762 H         1 UNK         0.3453 
     86 H86       -73.3028   28.7710  -74.0096 H         1 UNK         0.2984 
     87 H87       -73.2838   29.8564  -76.5684 H         1 UNK         0.0554 
     88 H88       -71.4118   29.6269  -78.2129 H         1 UNK         0.0847 
     89 H89       -70.2412   29.8895  -76.9203 H         1 UNK         0.0847 
     90 H90       -71.3601   31.1669  -77.3725 H         1 UNK         0.0847 
     91 H91       -73.1108   27.6390  -76.5100 H         1 UNK         0.3141 
     92 H92       -70.5524   25.3535  -75.8275 H         1 UNK         0.0743 
     93 H93       -70.9429   25.7178  -73.4302 H         1 UNK         0.0784 
     94 H94       -72.6689   25.9189  -73.6858 H         1 UNK         0.0784 
     95 H95       -71.9077   24.3528  -73.9687 H         1 UNK         0.0784 
     96 H96       -73.5199   25.3472  -75.9709 H         1 UNK         0.3213 
     97 H97       -73.3041   23.5129  -79.0919 H         1 UNK         0.0855 
     98 H98       -74.2648   22.9359  -76.2408 H         1 UNK         0.0814 
     99 H99       -73.0470   22.0114  -77.1108 H         1 UNK         0.0814 
    100 H100      -74.7035   22.0421  -77.6941 H         1 UNK         0.0814 
    101 H101      -75.5609   24.5192  -77.6255 H         1 UNK         0.3105 
    102 H102      -76.1400   27.2925  -79.8211 H         1 UNK         0.0547 
    103 H103      -78.3079   26.1078  -80.0363 H         1 UNK         0.0837 
    104 H104      -77.0678   25.2674  -80.9543 H         1 UNK         0.0837 
    105 H105      -77.5949   24.6262  -79.4039 H         1 UNK         0.0837 
    106 H106      -77.6585   26.3986  -77.6171 H         1 UNK         0.3020 
    107 H107      -75.9573   28.2797  -75.0780 H         1 UNK         0.1245 
    108 H108      -78.6908   28.5149  -75.0376 H         1 UNK         0.0781 
    109 H109      -78.4749   28.6961  -76.7414 H         1 UNK         0.0781 
    110 H110      -78.1481   32.0296  -73.8150 H         1 UNK         0.0836 
    111 H111      -79.4955   31.1750  -74.5244 H         1 UNK         0.0836 
    112 H112      -78.0134   26.4284  -74.7415 H         1 UNK         0.3022 
    113 H113      -75.9921   23.4828  -74.4099 H         1 UNK         0.0747 
    114 H114      -77.3541   23.4472  -72.2880 H         1 UNK         0.0793 
    115 H115      -77.5825   25.1916  -72.4254 H         1 UNK         0.0793 
    116 H116      -75.9766   24.5338  -72.1907 H         1 UNK         0.0793 
    117 H117      -78.8257   24.0123  -74.3551 H         1 UNK         0.3047 
    118 H118      -79.3977   23.4131  -77.8331 H         1 UNK         0.0822 
    119 H119      -79.2689   21.1457  -76.7892 H         1 UNK         0.0807 
    120 H120      -80.9301   21.7023  -76.8958 H         1 UNK         0.0807 
    121 H121      -80.0819   21.7433  -75.3496 H         1 UNK         0.0807 
    122 H122      -81.1609   23.9767  -75.6509 H         1 UNK         0.2946 
    123 H123      -80.9893   27.5175  -75.8041 H         1 UNK         0.1144 
    124 H124      -82.5381   26.8976  -77.6684 H         1 UNK         0.0793 
    125 H125      -83.4238   27.2833  -76.2031 H         1 UNK         0.0793 
    126 H126      -83.2155   25.6012  -76.6928 H         1 UNK         0.0793 
    127 H127      -82.6536   25.8491  -74.2480 H         1 UNK         0.2896 
@<TRIPOS>BOND
     1    1    2 1    
     2    1   67 1    
     3    1   68 1    
     4    1   69 1    
     5    2    3 2    
     6    2    4 am   BACKBONE|DICT|INTERRES
     7    4    5 1    
     8    4   70 1    
     9    5    6 1    
    10    5   65 1    
    11    5   71 1    
    12    6    7 1    
    13    6   72 1    
    14    6   73 1    
    15    7    8 1    
    16    8    9 1    
    17    8   74 1    
    18    8   75 1    
    19    9   10 ar   
    20    9   14 ar   
    21   10   11 ar   
    22   10   76 1    
    23   11   12 ar   
    24   11   48 1    
    25   12   13 ar   
    26   12   77 1    
    27   13   14 ar   
    28   13   15 1    
    29   14   78 1    
    30   15   16 1    
    31   15   79 1    
    32   15   80 1    
    33   16   17 1    
    34   17   18 1    
    35   17   81 1    
    36   17   82 1    
    37   18   19 1    
    38   18   22 1    
    39   18   83 1    
    40   19   20 am   BACKBONE|DICT|INTERRES
    41   19   21 2    
    42   20   84 1    
    43   20   85 1    
    44   22   23 am   BACKBONE|DICT|INTERRES
    45   22   86 1    
    46   23   24 2    
    47   23   25 1    
    48   25   26 1    
    49   25   27 1    
    50   25   87 1    
    51   26   88 1    
    52   26   89 1    
    53   26   90 1    
    54   27   28 am   BACKBONE|DICT|INTERRES
    55   27   91 1    
    56   28   29 2    
    57   28   30 1    
    58   30   31 1    
    59   30   32 1    
    60   30   92 1    
    61   31   93 1    
    62   31   94 1    
    63   31   95 1    
    64   32   33 am   BACKBONE|DICT|INTERRES
    65   32   96 1    
    66   33   34 2    
    67   33   35 1    
    68   35   36 1    
    69   35   37 1    
    70   35   97 1    
    71   36   98 1    
    72   36   99 1    
    73   36  100 1    
    74   37   38 am   BACKBONE|DICT|INTERRES
    75   37  101 1    
    76   38   39 2    
    77   38   40 1    
    78   40   41 1    
    79   40   42 1    
    80   40  102 1    
    81   41  103 1    
    82   41  104 1    
    83   41  105 1    
    84   42   43 am   BACKBONE|DICT|INTERRES
    85   42  106 1    
    86   43   44 2    
    87   43   45 1    
    88   45   46 1    
    89   45   49 1    
    90   45  107 1    
    91   46   47 1    
    92   46  108 1    
    93   46  109 1    
    94   47   48 1    
    95   48  110 1    
    96   48  111 1    
    97   49   50 am   BACKBONE|DICT|INTERRES
    98   49  112 1    
    99   50   51 2    
   100   50   52 1    
   101   52   53 1    
   102   52   54 1    
   103   52  113 1    
   104   53  114 1    
   105   53  115 1    
   106   53  116 1    
   107   54   55 am   BACKBONE|DICT|INTERRES
   108   54  117 1    
   109   55   56 2    
   110   55   57 1    
   111   57   58 1    
   112   57   59 1    
   113   57  118 1    
   114   58  119 1    
   115   58  120 1    
   116   58  121 1    
   117   59   60 am   BACKBONE|DICT|INTERRES
   118   59  122 1    
   119   60   61 2    
   120   60   62 1    
   121   62   63 1    
   122   62   64 1    
   123   62  123 1    
   124   63  124 1    
   125   63  125 1    
   126   63  126 1    
   127   64   65 am   BACKBONE|DICT|INTERRES
   128   64  127 1    
   129   65   66 2    
@<TRIPOS>SUBSTRUCTURE
     1 UNK         1 GROUP             0       ****    0 ROOT    
