@<TRIPOS>MOLECULE
3R135
127   129    1
SMALL
USER_CHARGES


@<TRIPOS>ATOM
      1 CA        -81.4123   31.3498  -75.8275 C.3       0 UNK        -0.1998 
      2 C         -80.9520   30.0757  -75.1352 C.2       0 UNK         0.4909 
      3 O         -79.9883   29.4547  -75.5807 O.2       0 UNK        -0.5240 
      4 N         -81.6316   29.6907  -74.0477 N.am      1 UNK        -0.4739 
      5 CA        -81.3486   28.4920  -73.2476 C.3       1 UNK         0.0864 
      6 C6        -82.1455   28.4928  -71.9183 C.3       11 UNK        -0.0881 
      7 S7        -81.8353   29.9837  -70.9135 S.3       11 UNK        -0.2682 
      8 C8        -80.7205   29.3417  -69.6234 C.3       11 UNK         0.0289 
      9 C9        -79.3692   28.8904  -70.1670 C.ar      11 UNK        -0.0687 
     10 C10       -78.8991   27.6008  -69.8987 C.ar      11 UNK        -0.0823 
     11 C11       -77.6319   27.1929  -70.3297 C.ar      11 UNK        -0.0830 
     12 C12       -76.8379   28.0948  -71.0511 C.ar      11 UNK        -0.1021 
     13 C13       -77.2995   29.3827  -71.3360 C.ar      11 UNK        -0.0753 
     14 C14       -78.5632   29.7761  -70.8886 C.ar      11 UNK        -0.0933 
     15 C15       -76.4182   30.3614  -72.0948 C.3       11 UNK         0.0166 
     16 S16       -76.6266   30.1834  -73.8918 S.3       11 UNK        -0.2615 
     17 C17       -75.5070   31.4918  -74.5008 C.3       11 UNK        -0.0865 
     18 CA        -74.2459   30.9503  -75.2268 C.3       10 UNK         0.0862 
     19 C         -73.3866   32.1399  -75.7388 C.2       10 UNK         0.5551 
     20 N         -73.5328   32.5150  -77.0021 N.am      10 UNK        -0.7319 
     21 O         -72.6339   32.7545  -74.9851 O.2       10 UNK        -0.5018 
     22 N         -73.5028   30.0064  -74.3768 N.am      10 UNK        -0.4509 
     23 C         -72.3606   29.3763  -74.6846 C.2       10 UNK         0.4899 
     24 O         -71.7486   29.5323  -75.7419 O.2       10 UNK        -0.4839 
     25 CA        -71.8002   28.3953  -73.6384 C.3       9 UNK         0.0222 
     26 CB        -72.6325   28.3081  -72.3400 C.3       9 UNK        -0.1966 
     27 N         -71.7282   27.0634  -74.2318 N.am      9 UNK        -0.4218 
     28 C         -70.6436   26.4946  -74.7721 C.2       9 UNK         0.5020 
     29 O         -69.5264   27.0136  -74.7937 O.2       9 UNK        -0.5274 
     30 CA        -70.8376   25.0999  -75.3868 C.3       8 UNK         0.0270 
     31 CB        -70.9655   24.0320  -74.2865 C.3       8 UNK        -0.1976 
     32 N         -72.0242   25.0576  -76.2438 N.am      8 UNK        -0.4313 
     33 C         -72.0079   25.1668  -77.5796 C.2       8 UNK         0.5041 
     34 O         -70.9770   25.2791  -78.2448 O.2       8 UNK        -0.5577 
     35 CA        -73.3639   25.1320  -78.3124 C.3       7 UNK         0.0284 
     36 CB        -73.6780   23.7037  -78.7864 C.3       7 UNK        -0.1958 
     37 N         -74.4789   25.6253  -77.5019 N.am      7 UNK        -0.4454 
     38 C         -74.6312   26.8965  -77.1073 C.2       7 UNK         0.5089 
     39 O         -73.9145   27.8189  -77.4914 O.2       7 UNK        -0.5125 
     40 CA        -75.7508   27.1894  -76.0930 C.3       6 UNK         0.0408 
     41 CB        -77.0027   27.7140  -76.8091 C.3       6 UNK        -0.1791 
     42 N         -76.1202   26.0462  -75.2529 N.am      6 UNK        -0.4762 
     43 C         -75.3051   25.4090  -74.4004 C.2       6 UNK         0.5007 
     44 O         -74.1177   25.6940  -74.2526 O.2       6 UNK        -0.5032 
     45 CA        -75.8964   24.2080  -73.6436 C.3       5 UNK         0.0783 
     46 C46       -76.8033   24.6449  -72.4683 C.3       11 UNK        -0.0857 
     47 S47       -75.8321   25.0968  -70.9975 S.3       11 UNK        -0.2512 
     48 C48       -77.1349   25.8014  -69.9311 C.3       11 UNK         0.0225 
     49 N         -76.5987   23.3284  -74.5768 N.am      5 UNK        -0.4615 
     50 C         -75.9940   22.4469  -75.3842 C.2       4 UNK         0.5053 
     51 O         -74.7829   22.2291  -75.3729 O.2       4 UNK        -0.5105 
     52 CA        -76.8845   21.6868  -76.3835 C.3       4 UNK         0.0263 
     53 CB        -77.3306   20.3418  -75.7886 C.3       4 UNK        -0.1981 
     54 N         -78.0654   22.4478  -76.8008 N.am      4 UNK        -0.4224 
     55 C         -78.0240   23.5596  -77.5486 C.2       3 UNK         0.4895 
     56 O         -76.9868   24.0439  -77.9999 O.2       3 UNK        -0.5091 
     57 CA        -79.3623   24.2796  -77.7893 C.3       3 UNK         0.0250 
     58 CB        -80.0986   23.6629  -78.9893 C.3       3 UNK        -0.1996 
     59 N         -80.2524   24.2999  -76.6201 N.am      3 UNK        -0.4254 
     60 C         -79.9352   24.8301  -75.4308 C.2       2 UNK         0.5004 
     61 O         -78.8211   25.2791  -75.1553 O.2       2 UNK        -0.5226 
     62 CA        -81.0155   24.8218  -74.3432 C.3       2 UNK         0.0269 
     63 CB        -80.7646   23.6792  -73.3458 C.3       2 UNK        -0.1926 
     64 N         -80.9816   26.0989  -73.6305 N.am      2 UNK        -0.4687 
     65 C         -81.6337   27.1954  -74.0358 C.2       1 UNK         0.5165 
     66 O         -82.4551   27.1952  -74.9578 O.2       1 UNK        -0.5079 
     67 H67       -82.2626   31.8057  -75.3205 H         1 UNK         0.0900 
     68 H68       -80.6012   32.0772  -75.8502 H         1 UNK         0.0900 
     69 H69       -81.7053   31.1332  -76.8544 H         1 UNK         0.0900 
     70 H70       -82.4173   30.2409  -73.7328 H         1 UNK         0.2959 
     71 H71       -80.2809   28.5057  -73.0152 H         1 UNK         0.1079 
     72 H72       -81.9089   27.6082  -71.3237 H         1 UNK         0.0837 
     73 H73       -83.2179   28.4415  -72.1172 H         1 UNK         0.0837 
     74 H74       -80.5526   30.1285  -68.8868 H         1 UNK         0.0685 
     75 H75       -81.2225   28.5305  -69.0937 H         1 UNK         0.0685 
     76 H76       -79.5106   26.9197  -69.3220 H         1 UNK         0.1434 
     77 H77       -75.8497   27.8092  -71.3814 H         1 UNK         0.1329 
     78 H78       -78.9183   30.7769  -71.0937 H         1 UNK         0.1335 
     79 H79       -76.6600   31.3846  -71.8027 H         1 UNK         0.0680 
     80 H80       -75.3722   30.2035  -71.8291 H         1 UNK         0.0680 
     81 H81       -76.0862   32.1201  -75.1804 H         1 UNK         0.1032 
     82 H82       -75.2195   32.1423  -73.6722 H         1 UNK         0.1032 
     83 H83       -74.5784   30.3767  -76.0944 H         1 UNK         0.0461 
     84 H84       -74.1525   32.0196  -77.6242 H         1 UNK         0.3453 
     85 H85       -72.9973   33.2964  -77.3468 H         1 UNK         0.3453 
     86 H86       -73.9270   29.8088  -73.4847 H         1 UNK         0.2984 
     87 H87       -70.7998   28.7426  -73.3729 H         1 UNK         0.0554 
     88 H88       -72.1745   27.6164  -71.6325 H         1 UNK         0.0847 
     89 H89       -73.6478   27.9542  -72.5254 H         1 UNK         0.0847 
     90 H90       -72.6939   29.2749  -71.8385 H         1 UNK         0.0847 
     91 H91       -72.6100   26.5520  -74.2682 H         1 UNK         0.3141 
     92 H92       -69.9458   24.8664  -75.9725 H         1 UNK         0.0743 
     93 H93       -71.8425   24.1937  -73.6583 H         1 UNK         0.0784 
     94 H94       -71.0436   23.0326  -74.7148 H         1 UNK         0.0784 
     95 H95       -70.0911   24.0380  -73.6343 H         1 UNK         0.0784 
     96 H96       -72.9204   25.0174  -75.7717 H         1 UNK         0.3213 
     97 H97       -73.2781   25.7740  -79.1918 H         1 UNK         0.0855 
     98 H98       -73.8074   23.0194  -77.9469 H         1 UNK         0.0814 
     99 H99       -72.8712   23.3112  -79.4069 H         1 UNK         0.0814 
    100 H100      -74.5887   23.6755  -79.3850 H         1 UNK         0.0814 
    101 H101      -75.1886   24.9531  -77.2333 H         1 UNK         0.3105 
    102 H102      -75.3832   27.9705  -75.4265 H         1 UNK         0.0547 
    103 H103      -76.7770   28.6131  -77.3836 H         1 UNK         0.0837 
    104 H104      -77.4105   26.9748  -77.4986 H         1 UNK         0.0837 
    105 H105      -77.7844   27.9745  -76.0952 H         1 UNK         0.0837 
    106 H106      -77.0954   25.7504  -75.2972 H         1 UNK         0.3020 
    107 H107      -75.0567   23.6426  -73.2310 H         1 UNK         0.1245 
    108 H108      -77.4527   23.8196  -72.1731 H         1 UNK         0.0781 
    109 H109      -77.4650   25.4674  -72.7484 H         1 UNK         0.0781 
    110 H110      -76.7438   25.8625  -68.9148 H         1 UNK         0.0836 
    111 H111      -77.9701   25.0999  -69.8956 H         1 UNK         0.0836 
    112 H112      -77.5845   23.5117  -74.7047 H         1 UNK         0.3022 
    113 H113      -76.2817   21.4860  -77.2720 H         1 UNK         0.0747 
    114 H114      -77.8962   19.7551  -76.5128 H         1 UNK         0.0793 
    115 H115      -76.4687   19.7422  -75.4917 H         1 UNK         0.0793 
    116 H116      -77.9538   20.4768  -74.9035 H         1 UNK         0.0793 
    117 H117      -78.9632   22.1202  -76.4752 H         1 UNK         0.3047 
    118 H118      -79.1294   25.3177  -78.0343 H         1 UNK         0.0822 
    119 H119      -80.9918   24.2340  -79.2434 H         1 UNK         0.0807 
    120 H120      -80.4013   22.6333  -78.7948 H         1 UNK         0.0807 
    121 H121      -79.4612   23.6534  -79.8748 H         1 UNK         0.0807 
    122 H122      -81.1847   23.9364  -76.7593 H         1 UNK         0.2946 
    123 H123      -81.9962   24.6771  -74.8030 H         1 UNK         0.1144 
    124 H124      -81.5312   23.6567  -72.5711 H         1 UNK         0.0793 
    125 H125      -79.7966   23.7741  -72.8535 H         1 UNK         0.0793 
    126 H126      -80.7834   22.7103  -73.8466 H         1 UNK         0.0793 
    127 H127      -80.2948   26.1803  -72.8948 H         1 UNK         0.2896 
@<TRIPOS>BOND
     1    1    2 1    
     2    1   67 1    
     3    1   68 1    
     4    1   69 1    
     5    2    3 2    
     6    2    4 am   BACKBONE|DICT|INTERRES
     7    4    5 1    
     8    4   70 1    
     9    5    6 1    
    10    5   65 1    
    11    5   71 1    
    12    6    7 1    
    13    6   72 1    
    14    6   73 1    
    15    7    8 1    
    16    8    9 1    
    17    8   74 1    
    18    8   75 1    
    19    9   10 ar   
    20    9   14 ar   
    21   10   11 ar   
    22   10   76 1    
    23   11   12 ar   
    24   11   48 1    
    25   12   13 ar   
    26   12   77 1    
    27   13   14 ar   
    28   13   15 1    
    29   14   78 1    
    30   15   16 1    
    31   15   79 1    
    32   15   80 1    
    33   16   17 1    
    34   17   18 1    
    35   17   81 1    
    36   17   82 1    
    37   18   19 1    
    38   18   22 1    
    39   18   83 1    
    40   19   20 am   BACKBONE|DICT|INTERRES
    41   19   21 2    
    42   20   84 1    
    43   20   85 1    
    44   22   23 am   BACKBONE|DICT|INTERRES
    45   22   86 1    
    46   23   24 2    
    47   23   25 1    
    48   25   26 1    
    49   25   27 1    
    50   25   87 1    
    51   26   88 1    
    52   26   89 1    
    53   26   90 1    
    54   27   28 am   BACKBONE|DICT|INTERRES
    55   27   91 1    
    56   28   29 2    
    57   28   30 1    
    58   30   31 1    
    59   30   32 1    
    60   30   92 1    
    61   31   93 1    
    62   31   94 1    
    63   31   95 1    
    64   32   33 am   BACKBONE|DICT|INTERRES
    65   32   96 1    
    66   33   34 2    
    67   33   35 1    
    68   35   36 1    
    69   35   37 1    
    70   35   97 1    
    71   36   98 1    
    72   36   99 1    
    73   36  100 1    
    74   37   38 am   BACKBONE|DICT|INTERRES
    75   37  101 1    
    76   38   39 2    
    77   38   40 1    
    78   40   41 1    
    79   40   42 1    
    80   40  102 1    
    81   41  103 1    
    82   41  104 1    
    83   41  105 1    
    84   42   43 am   BACKBONE|DICT|INTERRES
    85   42  106 1    
    86   43   44 2    
    87   43   45 1    
    88   45   46 1    
    89   45   49 1    
    90   45  107 1    
    91   46   47 1    
    92   46  108 1    
    93   46  109 1    
    94   47   48 1    
    95   48  110 1    
    96   48  111 1    
    97   49   50 am   BACKBONE|DICT|INTERRES
    98   49  112 1    
    99   50   51 2    
   100   50   52 1    
   101   52   53 1    
   102   52   54 1    
   103   52  113 1    
   104   53  114 1    
   105   53  115 1    
   106   53  116 1    
   107   54   55 am   BACKBONE|DICT|INTERRES
   108   54  117 1    
   109   55   56 2    
   110   55   57 1    
   111   57   58 1    
   112   57   59 1    
   113   57  118 1    
   114   58  119 1    
   115   58  120 1    
   116   58  121 1    
   117   59   60 am   BACKBONE|DICT|INTERRES
   118   59  122 1    
   119   60   61 2    
   120   60   62 1    
   121   62   63 1    
   122   62   64 1    
   123   62  123 1    
   124   63  124 1    
   125   63  125 1    
   126   63  126 1    
   127   64   65 am   BACKBONE|DICT|INTERRES
   128   64  127 1    
   129   65   66 2    
@<TRIPOS>SUBSTRUCTURE
     1 UNK         1 GROUP             0       ****    0 ROOT    
